*Heading
 Job TopOpt
** Job name: TopOptJob_20251120_194950 Model name: Model-1
** Generated by: Abaqus/CAE 2024.HF2
*Preprint, echo=NO, model=NO, history=NO, contact=NO
**
** PARTS
**
*Part, name=Airfoil
*End Part
**  
**
** ASSEMBLY
**
*Assembly, name=Assembly
**  
*Instance, name=Airfoil-1, part=Airfoil
*Node
      1,  0.404573649, 0.0106735565
      2,  0.400949985, 0.0070499056
      3,  0.395999998, 0.00572355697
      4,  0.391049981, 0.0070499056
      5,  0.387426347, 0.0106735565
      6,  0.386099994, 0.0156235574
      7,  0.387426347, 0.0205735564
      8,  0.391049981, 0.0241972078
      9,  0.395999998, 0.0255235564
     10,  0.400949985, 0.0241972078
     11,  0.404573649, 0.0205735564
     12,  0.405900002, 0.0156235574
     13,  0.206573635, 0.0106735565
     14,  0.202949986, 0.0070499056
     15,  0.197999984, 0.00572355697
     16,  0.193049982, 0.0070499056
     17,  0.189426333, 0.0106735565
     18,   0.18809998, 0.0156235574
     19,  0.189426333, 0.0205735564
     20,  0.193049982, 0.0241972078
** ... 1653 like lines cut
*Element, type=CPS3
 1,  698,    3,  697
 2, 1037,  692,  804
 3, 1353, 1019, 1168
 4,  276,  225, 1410
 5,  279,  221, 1317
 6, 1358, 1173,  218
 7, 1662, 1489,  306
 8, 1539, 1557,  368
 9,  249, 1579, 1073
10,  664,  737,  203
11, 1255, 1168,  316
12, 1095,  912, 1011
13,   26,  673,   25
14, 1056,  784, 1236
15,  783,  801,  252
16, 1246,  997,  411
17, 1586, 1015, 1105
18,  485,  707,  994
19,  449,  353, 1310
20, 1158,  229, 1039
** ... 17 like lines cut
*Element, type=CPS4R
  38,  691,    5,  693,  413
  39,  159,  697, 1038,  619
  40,  618,  811,  810,  157
  41,  619, 1038,  805,  158
  42,  620,  698,  697,  159
  43,  691, 1038,    4,    5
  44,  692,    1,    2,  804
  45,  812,  161,  622,  414
  46,  917,  414,  622,  162
  47,  971, 1279,  215, 1473
  48, 1496, 1422, 1643, 1514
  49, 1286,  349, 1274, 1371
  50,  445,  875,  955, 1217
  51,  445,   76,  546,  875
  52,  875,  546,   77,  446
  53,  446,   77,  547,  932
  54,  932,  547,   78,  447
  55,  940,  932,  447, 1326
  56, 1637, 1367, 1432,  285
  57,  214, 1370, 1414, 1466
** ... 1441 like lines cut
*Nset, nset=_G2, internal, generate
    1,  1673,     1
*Elset, elset=_G2, internal, generate
    1,  1498,     1
** Section: Section-PLA
*Solid Section, elset=_G2, material=PLA
,
*End Instance
**  
*Nset, nset=TopOptSet, instance=Airfoil-1, generate
    1,  1673,     1
*Elset, elset=TopOptSet, instance=Airfoil-1, generate
    1,  1498,     1
*Nset, nset=_PickedSet7, internal, instance=Airfoil-1, generate
 13,  24,   1
*Elset, elset=_PickedSet7, internal, instance=Airfoil-1
  74,  75, 105, 133, 143, 144, 145, 162, 163, 698, 700, 838
*Nset, nset=_PickedSet8, internal, instance=Airfoil-1, generate
  1,  12,   1
*Elset, elset=_PickedSet8, internal, instance=Airfoil-1
  43,  44,  83,  85,  89,  99, 100, 544, 634, 650, 834, 835
*Elset, elset=_Surf-Segment-0_S4, internal, instance=Airfoil-1
 164,
*Surface, type=ELEMENT, name=Surf-Segment-0
_Surf-Segment-0_S4, S4
*Elset, elset=_Surf-Segment-1_S1, internal, instance=Airfoil-1
 164,
*Elset, elset=_Surf-Segment-1_S3, internal, instance=Airfoil-1
 165,
*Surface, type=ELEMENT, name=Surf-Segment-1
_Surf-Segment-1_S1, S1
_Surf-Segment-1_S3, S3
*Elset, elset=_Surf-Segment-2_S1, internal, instance=Airfoil-1
 164,
*Elset, elset=_Surf-Segment-2_S3, internal, instance=Airfoil-1
 165,
*Surface, type=ELEMENT, name=Surf-Segment-2
_Surf-Segment-2_S1, S1
_Surf-Segment-2_S3, S3
*Elset, elset=_Surf-Segment-3_S1, internal, instance=Airfoil-1
 166,
*Elset, elset=_Surf-Segment-3_S3, internal, instance=Airfoil-1
 167,
*Surface, type=ELEMENT, name=Surf-Segment-3
_Surf-Segment-3_S1, S1
_Surf-Segment-3_S3, S3
*Elset, elset=_Surf-Segment-4_S1, internal, instance=Airfoil-1
 168,
*Elset, elset=_Surf-Segment-4_S3, internal, instance=Airfoil-1
 189,
*Surface, type=ELEMENT, name=Surf-Segment-4
_Surf-Segment-4_S1, S1
_Surf-Segment-4_S3, S3
*Elset, elset=_Surf-Segment-5_S1, internal, instance=Airfoil-1
 190, 191
*Surface, type=ELEMENT, name=Surf-Segment-5
_Surf-Segment-5_S1, S1
*Elset, elset=_Surf-Segment-6_S3, internal, instance=Airfoil-1
 192,
*Elset, elset=_Surf-Segment-6_S1, internal, instance=Airfoil-1
 627,
*Surface, type=ELEMENT, name=Surf-Segment-6
_Surf-Segment-6_S3, S3
_Surf-Segment-6_S1, S1
*Elset, elset=_Surf-Segment-7_S3, internal, instance=Airfoil-1
 193,
*Elset, elset=_Surf-Segment-7_S1, internal, instance=Airfoil-1
 626,
*Surface, type=ELEMENT, name=Surf-Segment-7
_Surf-Segment-7_S3, S3
_Surf-Segment-7_S1, S1
*Elset, elset=_Surf-Segment-8_S4, internal, instance=Airfoil-1
 169,
*Elset, elset=_Surf-Segment-8_S3, internal, instance=Airfoil-1
 731,
*Surface, type=ELEMENT, name=Surf-Segment-8
_Surf-Segment-8_S4, S4
_Surf-Segment-8_S3, S3
*Elset, elset=_Surf-Segment-9_S4, internal, instance=Airfoil-1
 576, 732
*Surface, type=ELEMENT, name=Surf-Segment-9
_Surf-Segment-9_S4, S4
*Elset, elset=_Surf-Segment-10_S4, internal, instance=Airfoil-1
 170, 574
*Surface, type=ELEMENT, name=Surf-Segment-10
_Surf-Segment-10_S4, S4
*Elset, elset=_Surf-Segment-11_S4, internal, instance=Airfoil-1
 864,
*Elset, elset=_Surf-Segment-11_S2, internal, instance=Airfoil-1
 1472,
*Surface, type=ELEMENT, name=Surf-Segment-11
_Surf-Segment-11_S4, S4
_Surf-Segment-11_S2, S2
*Elset, elset=_Surf-Segment-12_S4, internal, instance=Airfoil-1
 172,
*Elset, elset=_Surf-Segment-12_S1, internal, instance=Airfoil-1
 733,
*Surface, type=ELEMENT, name=Surf-Segment-12
_Surf-Segment-12_S4, S4
_Surf-Segment-12_S1, S1
*Elset, elset=_Surf-Segment-13_S1, internal, instance=Airfoil-1
 173, 734
*Surface, type=ELEMENT, name=Surf-Segment-13
_Surf-Segment-13_S1, S1
*Elset, elset=_Surf-Segment-14_S1, internal, instance=Airfoil-1
 174, 735
*Surface, type=ELEMENT, name=Surf-Segment-14
_Surf-Segment-14_S1, S1
*Elset, elset=_Surf-Segment-15_S1, internal, instance=Airfoil-1
 175, 736
*Surface, type=ELEMENT, name=Surf-Segment-15
_Surf-Segment-15_S1, S1
*Elset, elset=_Surf-Segment-16_S4, internal, instance=Airfoil-1
 176, 177
*Surface, type=ELEMENT, name=Surf-Segment-16
_Surf-Segment-16_S4, S4
*Elset, elset=_Surf-Segment-17_S4, internal, instance=Airfoil-1
 737,
*Elset, elset=_Surf-Segment-17_S2, internal, instance=Airfoil-1
 934,
*Surface, type=ELEMENT, name=Surf-Segment-17
_Surf-Segment-17_S4, S4
_Surf-Segment-17_S2, S2
*Elset, elset=_Surf-Segment-18_S3, internal, instance=Airfoil-1
 738,
*Elset, elset=_Surf-Segment-18_S2, internal, instance=Airfoil-1
 956,
*Surface, type=ELEMENT, name=Surf-Segment-18
_Surf-Segment-18_S3, S3
_Surf-Segment-18_S2, S2
*Elset, elset=_Surf-Segment-19_S3, internal, instance=Airfoil-1
 957,
*Elset, elset=_Surf-Segment-19_S2, internal, instance=Airfoil-1
 967,
*Surface, type=ELEMENT, name=Surf-Segment-19
_Surf-Segment-19_S3, S3
_Surf-Segment-19_S2, S2
*Elset, elset=_Surf-Segment-20_S2, internal, instance=Airfoil-1
 968, 972
*Surface, type=ELEMENT, name=Surf-Segment-20
_Surf-Segment-20_S2, S2
*Elset, elset=_Surf-Segment-21_S4, internal, instance=Airfoil-1
 196,
*Elset, elset=_Surf-Segment-21_S2, internal, instance=Airfoil-1
 973,
*Surface, type=ELEMENT, name=Surf-Segment-21
_Surf-Segment-21_S4, S4
_Surf-Segment-21_S2, S2
*Elset, elset=_Surf-Segment-22_S4, internal, instance=Airfoil-1
 603, 740
*Surface, type=ELEMENT, name=Surf-Segment-22
_Surf-Segment-22_S4, S4
*Elset, elset=_Surf-Segment-23_S2, internal, instance=Airfoil-1
 200, 741
*Surface, type=ELEMENT, name=Surf-Segment-23
_Surf-Segment-23_S2, S2
*Elset, elset=_Surf-Segment-24_S2, internal, instance=Airfoil-1
 216, 742
*Surface, type=ELEMENT, name=Surf-Segment-24
_Surf-Segment-24_S2, S2
*Elset, elset=_Surf-Segment-25_S2, internal, instance=Airfoil-1
 215, 743
*Surface, type=ELEMENT, name=Surf-Segment-25
_Surf-Segment-25_S2, S2
*Elset, elset=_Surf-Segment-26_S4, internal, instance=Airfoil-1
 214,
*Elset, elset=_Surf-Segment-26_S2, internal, instance=Airfoil-1
 744,
*Surface, type=ELEMENT, name=Surf-Segment-26
_Surf-Segment-26_S4, S4
_Surf-Segment-26_S2, S2
*Elset, elset=_Surf-Segment-27_S4, internal, instance=Airfoil-1
 213,
*Elset, elset=_Surf-Segment-27_S2, internal, instance=Airfoil-1
 745,
*Surface, type=ELEMENT, name=Surf-Segment-27
_Surf-Segment-27_S4, S4
_Surf-Segment-27_S2, S2
*Elset, elset=_Surf-Segment-28_S4, internal, instance=Airfoil-1
 223,
*Elset, elset=_Surf-Segment-28_S2, internal, instance=Airfoil-1
 746,
*Surface, type=ELEMENT, name=Surf-Segment-28
_Surf-Segment-28_S4, S4
_Surf-Segment-28_S2, S2
*Elset, elset=_Surf-Segment-29_S2, internal, instance=Airfoil-1
 206,
*Elset, elset=_Surf-Segment-29_S4, internal, instance=Airfoil-1
 217,
*Surface, type=ELEMENT, name=Surf-Segment-29
_Surf-Segment-29_S2, S2
_Surf-Segment-29_S4, S4
*Elset, elset=_Surf-Segment-30_S2, internal, instance=Airfoil-1
 218,
*Elset, elset=_Surf-Segment-30_S4, internal, instance=Airfoil-1
 747,
*Surface, type=ELEMENT, name=Surf-Segment-30
_Surf-Segment-30_S2, S2
_Surf-Segment-30_S4, S4
*Elset, elset=_Surf-Segment-31_S4, internal, instance=Airfoil-1
 748,
*Elset, elset=_Surf-Segment-31_S2, internal, instance=Airfoil-1
 981,
*Surface, type=ELEMENT, name=Surf-Segment-31
_Surf-Segment-31_S4, S4
_Surf-Segment-31_S2, S2
*Elset, elset=_Surf-Segment-32_S3, internal, instance=Airfoil-1
 233,
*Elset, elset=_Surf-Segment-32_S4, internal, instance=Airfoil-1
 749,
*Surface, type=ELEMENT, name=Surf-Segment-32
_Surf-Segment-32_S3, S3
_Surf-Segment-32_S4, S4
*Elset, elset=_Surf-Segment-33_S2, internal, instance=Airfoil-1
 237, 238
*Surface, type=ELEMENT, name=Surf-Segment-33
_Surf-Segment-33_S2, S2
*Elset, elset=_Surf-Segment-34_S2, internal, instance=Airfoil-1
 243, 244
*Surface, type=ELEMENT, name=Surf-Segment-34
_Surf-Segment-34_S2, S2
*Elset, elset=_Surf-Segment-35_S2, internal, instance=Airfoil-1
 249, 250
*Surface, type=ELEMENT, name=Surf-Segment-35
_Surf-Segment-35_S2, S2
*Elset, elset=_Surf-Segment-36_S2, internal, instance=Airfoil-1
 254, 255
*Surface, type=ELEMENT, name=Surf-Segment-36
_Surf-Segment-36_S2, S2
*Elset, elset=_Surf-Segment-37_S3, internal, instance=Airfoil-1
 259,
*Elset, elset=_Surf-Segment-37_S4, internal, instance=Airfoil-1
 750,
*Surface, type=ELEMENT, name=Surf-Segment-37
_Surf-Segment-37_S3, S3
_Surf-Segment-37_S4, S4
*Elset, elset=_Surf-Segment-38_S2, internal, instance=Airfoil-1
 640, 751
*Surface, type=ELEMENT, name=Surf-Segment-38
_Surf-Segment-38_S2, S2
*Elset, elset=_Surf-Segment-39_S4, internal, instance=Airfoil-1
 272,
*Elset, elset=_Surf-Segment-39_S2, internal, instance=Airfoil-1
 752,
*Surface, type=ELEMENT, name=Surf-Segment-39
_Surf-Segment-39_S4, S4
_Surf-Segment-39_S2, S2
*Elset, elset=_Surf-Segment-40_S4, internal, instance=Airfoil-1
 274,
*Elset, elset=_Surf-Segment-40_S2, internal, instance=Airfoil-1
 753,
*Surface, type=ELEMENT, name=Surf-Segment-40
_Surf-Segment-40_S4, S4
_Surf-Segment-40_S2, S2
*Elset, elset=_Surf-Segment-41_S4, internal, instance=Airfoil-1
 265,
*Elset, elset=_Surf-Segment-41_S2, internal, instance=Airfoil-1
 960,
*Surface, type=ELEMENT, name=Surf-Segment-41
_Surf-Segment-41_S4, S4
_Surf-Segment-41_S2, S2
*Elset, elset=_Surf-Segment-42_S4, internal, instance=Airfoil-1
 276, 287
*Surface, type=ELEMENT, name=Surf-Segment-42
_Surf-Segment-42_S4, S4
*Elset, elset=_Surf-Segment-43_S4, internal, instance=Airfoil-1
 288, 294
*Surface, type=ELEMENT, name=Surf-Segment-43
_Surf-Segment-43_S4, S4
*Elset, elset=_Surf-Segment-44_S4, internal, instance=Airfoil-1
 302,
*Elset, elset=_Surf-Segment-44_S2, internal, instance=Airfoil-1
 954,
*Surface, type=ELEMENT, name=Surf-Segment-44
_Surf-Segment-44_S4, S4
_Surf-Segment-44_S2, S2
*Elset, elset=_Surf-Segment-45_S4, internal, instance=Airfoil-1
 308, 754
*Surface, type=ELEMENT, name=Surf-Segment-45
_Surf-Segment-45_S4, S4
*Elset, elset=_Surf-Segment-46_S2, internal, instance=Airfoil-1
 314,
*Elset, elset=_Surf-Segment-46_S4, internal, instance=Airfoil-1
 315,
*Surface, type=ELEMENT, name=Surf-Segment-46
_Surf-Segment-46_S2, S2
_Surf-Segment-46_S4, S4
*Elset, elset=_Surf-Segment-47_S2, internal, instance=Airfoil-1
 320,
*Elset, elset=_Surf-Segment-47_S4, internal, instance=Airfoil-1
 321,
*Surface, type=ELEMENT, name=Surf-Segment-47
_Surf-Segment-47_S2, S2
_Surf-Segment-47_S4, S4
*Elset, elset=_Surf-Segment-48_S2, internal, instance=Airfoil-1
 327, 755
*Surface, type=ELEMENT, name=Surf-Segment-48
_Surf-Segment-48_S2, S2
*Elset, elset=_Surf-Segment-49_S2, internal, instance=Airfoil-1
 332, 333
*Surface, type=ELEMENT, name=Surf-Segment-49
_Surf-Segment-49_S2, S2
*Elset, elset=_Surf-Segment-50_S2, internal, instance=Airfoil-1
 338, 339
*Surface, type=ELEMENT, name=Surf-Segment-50
_Surf-Segment-50_S2, S2
*Elset, elset=_Surf-Segment-51_S2, internal, instance=Airfoil-1
 51, 52
*Surface, type=ELEMENT, name=Surf-Segment-51
_Surf-Segment-51_S2, S2
*Elset, elset=_Surf-Segment-52_S2, internal, instance=Airfoil-1
 53, 54
*Surface, type=ELEMENT, name=Surf-Segment-52
_Surf-Segment-52_S2, S2
*Elset, elset=_Surf-Segment-53_S3, internal, instance=Airfoil-1
 345,
*Elset, elset=_Surf-Segment-53_S4, internal, instance=Airfoil-1
 756,
*Surface, type=ELEMENT, name=Surf-Segment-53
_Surf-Segment-53_S3, S3
_Surf-Segment-53_S4, S4
*Elset, elset=_Surf-Segment-54_S4, internal, instance=Airfoil-1
 347, 757
*Surface, type=ELEMENT, name=Surf-Segment-54
_Surf-Segment-54_S4, S4
*Elset, elset=_Surf-Segment-55_S2, internal, instance=Airfoil-1
  92, 758
*Surface, type=ELEMENT, name=Surf-Segment-55
_Surf-Segment-55_S2, S2
*Elset, elset=_Surf-Segment-56_S4, internal, instance=Airfoil-1
 93,
*Elset, elset=_Surf-Segment-56_S2, internal, instance=Airfoil-1
 759,
*Surface, type=ELEMENT, name=Surf-Segment-56
_Surf-Segment-56_S4, S4
_Surf-Segment-56_S2, S2
*Elset, elset=_Surf-Segment-57_S4, internal, instance=Airfoil-1
 348,
*Elset, elset=_Surf-Segment-57_S2, internal, instance=Airfoil-1
 760,
*Surface, type=ELEMENT, name=Surf-Segment-57
_Surf-Segment-57_S4, S4
_Surf-Segment-57_S2, S2
*Elset, elset=_Surf-Segment-58_S4, internal, instance=Airfoil-1
 354, 360
*Surface, type=ELEMENT, name=Surf-Segment-58
_Surf-Segment-58_S4, S4
*Elset, elset=_Surf-Segment-59_S4, internal, instance=Airfoil-1
 366,
*Elset, elset=_Surf-Segment-59_S2, internal, instance=Airfoil-1
 861,
*Surface, type=ELEMENT, name=Surf-Segment-59
_Surf-Segment-59_S4, S4
_Surf-Segment-59_S2, S2
*Elset, elset=_Surf-Segment-60_S4, internal, instance=Airfoil-1
 371,
*Elset, elset=_Surf-Segment-60_S2, internal, instance=Airfoil-1
 866,
*Surface, type=ELEMENT, name=Surf-Segment-60
_Surf-Segment-60_S4, S4
_Surf-Segment-60_S2, S2
*Elset, elset=_Surf-Segment-61_S2, internal, instance=Airfoil-1
 761, 874
*Surface, type=ELEMENT, name=Surf-Segment-61
_Surf-Segment-61_S2, S2
*Elset, elset=_Surf-Segment-62_S4, internal, instance=Airfoil-1
 377,
*Elset, elset=_Surf-Segment-62_S2, internal, instance=Airfoil-1
 762,
*Surface, type=ELEMENT, name=Surf-Segment-62
_Surf-Segment-62_S4, S4
_Surf-Segment-62_S2, S2
*Elset, elset=_Surf-Segment-63_S4, internal, instance=Airfoil-1
 382,
*Elset, elset=_Surf-Segment-63_S2, internal, instance=Airfoil-1
 763,
*Surface, type=ELEMENT, name=Surf-Segment-63
_Surf-Segment-63_S4, S4
_Surf-Segment-63_S2, S2
*Elset, elset=_Surf-Segment-64_S4, internal, instance=Airfoil-1
 388,
*Elset, elset=_Surf-Segment-64_S2, internal, instance=Airfoil-1
 764,
*Surface, type=ELEMENT, name=Surf-Segment-64
_Surf-Segment-64_S4, S4
_Surf-Segment-64_S2, S2
*Elset, elset=_Surf-Segment-65_S4, internal, instance=Airfoil-1
 393,
*Elset, elset=_Surf-Segment-65_S2, internal, instance=Airfoil-1
 765,
*Surface, type=ELEMENT, name=Surf-Segment-65
_Surf-Segment-65_S4, S4
_Surf-Segment-65_S2, S2
*Elset, elset=_Surf-Segment-66_S4, internal, instance=Airfoil-1
 398,
*Elset, elset=_Surf-Segment-66_S2, internal, instance=Airfoil-1
 766,
*Surface, type=ELEMENT, name=Surf-Segment-66
_Surf-Segment-66_S4, S4
_Surf-Segment-66_S2, S2
*Elset, elset=_Surf-Segment-67_S1, internal, instance=Airfoil-1
 404,
*Elset, elset=_Surf-Segment-67_S2, internal, instance=Airfoil-1
 767,
*Surface, type=ELEMENT, name=Surf-Segment-67
_Surf-Segment-67_S1, S1
_Surf-Segment-67_S2, S2
*Elset, elset=_Surf-Segment-68_S2, internal, instance=Airfoil-1
 408, 409
*Surface, type=ELEMENT, name=Surf-Segment-68
_Surf-Segment-68_S2, S2
*Elset, elset=_Surf-Segment-69_S2, internal, instance=Airfoil-1
 154, 155
*Surface, type=ELEMENT, name=Surf-Segment-69
_Surf-Segment-69_S2, S2
*Elset, elset=_Surf-Segment-70_S2, internal, instance=Airfoil-1
 156, 157
*Surface, type=ELEMENT, name=Surf-Segment-70
_Surf-Segment-70_S2, S2
*Elset, elset=_Surf-Segment-71_S2, internal, instance=Airfoil-1
 413, 414
*Surface, type=ELEMENT, name=Surf-Segment-71
_Surf-Segment-71_S2, S2
*Elset, elset=_Surf-Segment-72_S2, internal, instance=Airfoil-1
 418,
*Elset, elset=_Surf-Segment-72_S3, internal, instance=Airfoil-1
 668,
*Surface, type=ELEMENT, name=Surf-Segment-72
_Surf-Segment-72_S2, S2
_Surf-Segment-72_S3, S3
*Elset, elset=_Surf-Segment-73_S3, internal, instance=Airfoil-1
 667,
*Elset, elset=_Surf-Segment-73_S1, internal, instance=Airfoil-1
 768,
*Surface, type=ELEMENT, name=Surf-Segment-73
_Surf-Segment-73_S3, S3
_Surf-Segment-73_S1, S1
*Elset, elset=_Surf-Segment-74_S3, internal, instance=Airfoil-1
 136,
*Elset, elset=_Surf-Segment-74_S1, internal, instance=Airfoil-1
 138,
*Surface, type=ELEMENT, name=Surf-Segment-74
_Surf-Segment-74_S3, S3
_Surf-Segment-74_S1, S1
*Elset, elset=_Surf-Segment-75_S3, internal, instance=Airfoil-1
 139, 140
*Surface, type=ELEMENT, name=Surf-Segment-75
_Surf-Segment-75_S3, S3
*Elset, elset=_Surf-Segment-76_S3, internal, instance=Airfoil-1
 419, 420
*Surface, type=ELEMENT, name=Surf-Segment-76
_Surf-Segment-76_S3, S3
*Elset, elset=_Surf-Segment-77_S1, internal, instance=Airfoil-1
 109,
*Elset, elset=_Surf-Segment-77_S3, internal, instance=Airfoil-1
 132,
*Surface, type=ELEMENT, name=Surf-Segment-77
_Surf-Segment-77_S1, S1
_Surf-Segment-77_S3, S3
*Elset, elset=_Surf-Segment-78_S1, internal, instance=Airfoil-1
 110, 111
*Surface, type=ELEMENT, name=Surf-Segment-78
_Surf-Segment-78_S1, S1
*Elset, elset=_Surf-Segment-79_S1, internal, instance=Airfoil-1
 1090,
*Elset, elset=_Surf-Segment-79_S3, internal, instance=Airfoil-1
 1471,
*Surface, type=ELEMENT, name=Surf-Segment-79
_Surf-Segment-79_S1, S1
_Surf-Segment-79_S3, S3
*Elset, elset=_Surf-Segment-80_S1, internal, instance=Airfoil-1
 114, 769
*Surface, type=ELEMENT, name=Surf-Segment-80
_Surf-Segment-80_S1, S1
*Elset, elset=_Surf-Segment-81_S1, internal, instance=Airfoil-1
 421, 770
*Surface, type=ELEMENT, name=Surf-Segment-81
_Surf-Segment-81_S1, S1
*Elset, elset=_Surf-Segment-82_S1, internal, instance=Airfoil-1
 427,
*Elset, elset=_Surf-Segment-82_S3, internal, instance=Airfoil-1
 433,
*Surface, type=ELEMENT, name=Surf-Segment-82
_Surf-Segment-82_S1, S1
_Surf-Segment-82_S3, S3
*Elset, elset=_Surf-Segment-83_S1, internal, instance=Airfoil-1
 434,
*Elset, elset=_Surf-Segment-83_S3, internal, instance=Airfoil-1
 845,
*Surface, type=ELEMENT, name=Surf-Segment-83
_Surf-Segment-83_S1, S1
_Surf-Segment-83_S3, S3
*Elset, elset=_Surf-Segment-84_S3, internal, instance=Airfoil-1
 442, 672
*Surface, type=ELEMENT, name=Surf-Segment-84
_Surf-Segment-84_S3, S3
*Elset, elset=_Surf-Segment-85_S1, internal, instance=Airfoil-1
 444, 771
*Surface, type=ELEMENT, name=Surf-Segment-85
_Surf-Segment-85_S1, S1
*Elset, elset=_Surf-Segment-86_S1, internal, instance=Airfoil-1
 456, 828
*Surface, type=ELEMENT, name=Surf-Segment-86
_Surf-Segment-86_S1, S1
*Elset, elset=_Surf-Segment-87_S3, internal, instance=Airfoil-1
 462, 673
*Surface, type=ELEMENT, name=Surf-Segment-87
_Surf-Segment-87_S3, S3
*Elset, elset=_Surf-Segment-88_S3, internal, instance=Airfoil-1
 772, 773
*Surface, type=ELEMENT, name=Surf-Segment-88
_Surf-Segment-88_S3, S3
*Elset, elset=_Surf-Segment-89_S1, internal, instance=Airfoil-1
 473, 774
*Surface, type=ELEMENT, name=Surf-Segment-89
_Surf-Segment-89_S1, S1
*Elset, elset=_Surf-Segment-90_S1, internal, instance=Airfoil-1
 474, 708
*Surface, type=ELEMENT, name=Surf-Segment-90
_Surf-Segment-90_S1, S1
*Elset, elset=_Surf-Segment-91_S3, internal, instance=Airfoil-1
 821,
*Surface, type=ELEMENT, name=Surf-Segment-91
_Surf-Segment-91_S3, S3
*Elset, elset=_Surf-Segment-92_S3, internal, instance=Airfoil-1
 482,
*Surface, type=ELEMENT, name=Surf-Segment-92
_Surf-Segment-92_S3, S3
*Elset, elset=_Surf-Segment-93_S3, internal, instance=Airfoil-1
 818,
*Surface, type=ELEMENT, name=Surf-Segment-93
_Surf-Segment-93_S3, S3
*Elset, elset=_Surf-Segment-94_S2, internal, instance=Airfoil-1
 483,
*Surface, type=ELEMENT, name=Surf-Segment-94
_Surf-Segment-94_S2, S2
*Elset, elset=_Surf-Segment-95_S3, internal, instance=Airfoil-1
 483,
*Surface, type=ELEMENT, name=Surf-Segment-95
_Surf-Segment-95_S3, S3
*Elset, elset=_Surf-Segment-96_S3, internal, instance=Airfoil-1
 483,
*Surface, type=ELEMENT, name=Surf-Segment-96
_Surf-Segment-96_S3, S3
*Elset, elset=_Surf-Segment-97_S4, internal, instance=Airfoil-1
 484,
*Surface, type=ELEMENT, name=Surf-Segment-97
_Surf-Segment-97_S4, S4
*Elset, elset=_Surf-Segment-98_S2, internal, instance=Airfoil-1
 811,
*Surface, type=ELEMENT, name=Surf-Segment-98
_Surf-Segment-98_S2, S2
*Elset, elset=_Surf-Segment-99_S2, internal, instance=Airfoil-1
 485,
*Surface, type=ELEMENT, name=Surf-Segment-99
_Surf-Segment-99_S2, S2
*Elset, elset=_Surf-Segment-100_S4, internal, instance=Airfoil-1
 481,
*Surface, type=ELEMENT, name=Surf-Segment-100
_Surf-Segment-100_S4, S4
*Elset, elset=_Surf-Segment-101_S2, internal, instance=Airfoil-1
 477, 478
*Surface, type=ELEMENT, name=Surf-Segment-101
_Surf-Segment-101_S2, S2
*Elset, elset=_Surf-Segment-102_S2, internal, instance=Airfoil-1
 471, 472
*Surface, type=ELEMENT, name=Surf-Segment-102
_Surf-Segment-102_S2, S2
*Elset, elset=_Surf-Segment-103_S2, internal, instance=Airfoil-1
 466, 467
*Surface, type=ELEMENT, name=Surf-Segment-103
_Surf-Segment-103_S2, S2
*Elset, elset=_Surf-Segment-104_S2, internal, instance=Airfoil-1
 460, 461
*Surface, type=ELEMENT, name=Surf-Segment-104
_Surf-Segment-104_S2, S2
*Elset, elset=_Surf-Segment-105_S2, internal, instance=Airfoil-1
 448,
*Elset, elset=_Surf-Segment-105_S4, internal, instance=Airfoil-1
 775,
*Surface, type=ELEMENT, name=Surf-Segment-105
_Surf-Segment-105_S2, S2
_Surf-Segment-105_S4, S4
*Elset, elset=_Surf-Segment-106_S2, internal, instance=Airfoil-1
 450, 451
*Surface, type=ELEMENT, name=Surf-Segment-106
_Surf-Segment-106_S2, S2
*Elset, elset=_Surf-Segment-107_S4, internal, instance=Airfoil-1
 439,
*Elset, elset=_Surf-Segment-107_S2, internal, instance=Airfoil-1
 440,
*Surface, type=ELEMENT, name=Surf-Segment-107
_Surf-Segment-107_S4, S4
_Surf-Segment-107_S2, S2
*Elset, elset=_Surf-Segment-108_S2, internal, instance=Airfoil-1
 431,
*Elset, elset=_Surf-Segment-108_S4, internal, instance=Airfoil-1
 776,
*Surface, type=ELEMENT, name=Surf-Segment-108
_Surf-Segment-108_S2, S2
_Surf-Segment-108_S4, S4
*Elset, elset=_Surf-Segment-109_S2, internal, instance=Airfoil-1
 425,
*Elset, elset=_Surf-Segment-109_S4, internal, instance=Airfoil-1
 777,
*Surface, type=ELEMENT, name=Surf-Segment-109
_Surf-Segment-109_S2, S2
_Surf-Segment-109_S4, S4
*Elset, elset=_Surf-Segment-110_S2, internal, instance=Airfoil-1
 119,
*Elset, elset=_Surf-Segment-110_S4, internal, instance=Airfoil-1
 778,
*Surface, type=ELEMENT, name=Surf-Segment-110
_Surf-Segment-110_S2, S2
_Surf-Segment-110_S4, S4
*Elset, elset=_Surf-Segment-111_S2, internal, instance=Airfoil-1
 121, 122
*Surface, type=ELEMENT, name=Surf-Segment-111
_Surf-Segment-111_S2, S2
*Elset, elset=_Surf-Segment-112_S2, internal, instance=Airfoil-1
 486,
*Elset, elset=_Surf-Segment-112_S4, internal, instance=Airfoil-1
 779,
*Surface, type=ELEMENT, name=Surf-Segment-112
_Surf-Segment-112_S2, S2
_Surf-Segment-112_S4, S4
*Elset, elset=_Surf-Segment-113_S2, internal, instance=Airfoil-1
 492, 780
*Surface, type=ELEMENT, name=Surf-Segment-113
_Surf-Segment-113_S2, S2
*Elset, elset=_Surf-Segment-114_S2, internal, instance=Airfoil-1
 718, 781
*Surface, type=ELEMENT, name=Surf-Segment-114
_Surf-Segment-114_S2, S2
*Elset, elset=_Surf-Segment-115_S4, internal, instance=Airfoil-1
 498,
*Elset, elset=_Surf-Segment-115_S2, internal, instance=Airfoil-1
 782,
*Surface, type=ELEMENT, name=Surf-Segment-115
_Surf-Segment-115_S4, S4
_Surf-Segment-115_S2, S2
*Elset, elset=_Surf-Segment-116_S4, internal, instance=Airfoil-1
 103,
*Elset, elset=_Surf-Segment-116_S3, internal, instance=Airfoil-1
 783,
*Surface, type=ELEMENT, name=Surf-Segment-116
_Surf-Segment-116_S4, S4
_Surf-Segment-116_S3, S3
*Elset, elset=_Surf-Segment-117_S4, internal, instance=Airfoil-1
 78,
*Elset, elset=_Surf-Segment-117_S2, internal, instance=Airfoil-1
 784,
*Surface, type=ELEMENT, name=Surf-Segment-117
_Surf-Segment-117_S4, S4
_Surf-Segment-117_S2, S2
*Elset, elset=_Surf-Segment-118_S2, internal, instance=Airfoil-1
 79,
*Elset, elset=_Surf-Segment-118_S4, internal, instance=Airfoil-1
 80,
*Surface, type=ELEMENT, name=Surf-Segment-118
_Surf-Segment-118_S2, S2
_Surf-Segment-118_S4, S4
*Elset, elset=_Surf-Segment-119_S4, internal, instance=Airfoil-1
 506, 507
*Surface, type=ELEMENT, name=Surf-Segment-119
_Surf-Segment-119_S4, S4
*Elset, elset=_Surf-Segment-120_S4, internal, instance=Airfoil-1
 510, 511
*Surface, type=ELEMENT, name=Surf-Segment-120
_Surf-Segment-120_S4, S4
*Elset, elset=_Surf-Segment-121_S4, internal, instance=Airfoil-1
 514, 721
*Surface, type=ELEMENT, name=Surf-Segment-121
_Surf-Segment-121_S4, S4
*Elset, elset=_Surf-Segment-122_S2, internal, instance=Airfoil-1
 515,
*Elset, elset=_Surf-Segment-122_S4, internal, instance=Airfoil-1
 722,
*Surface, type=ELEMENT, name=Surf-Segment-122
_Surf-Segment-122_S2, S2
_Surf-Segment-122_S4, S4
*Elset, elset=_Surf-Segment-123_S2, internal, instance=Airfoil-1
 518,
*Elset, elset=_Surf-Segment-123_S4, internal, instance=Airfoil-1
 723,
*Surface, type=ELEMENT, name=Surf-Segment-123
_Surf-Segment-123_S2, S2
_Surf-Segment-123_S4, S4
*Elset, elset=_Surf-Segment-124_S3, internal, instance=Airfoil-1
 520, 724
*Surface, type=ELEMENT, name=Surf-Segment-124
_Surf-Segment-124_S3, S3
*Elset, elset=_Surf-Segment-125_S3, internal, instance=Airfoil-1
 523, 725
*Surface, type=ELEMENT, name=Surf-Segment-125
_Surf-Segment-125_S3, S3
*Elset, elset=_Surf-Segment-126_S3, internal, instance=Airfoil-1
 526, 726
*Surface, type=ELEMENT, name=Surf-Segment-126
_Surf-Segment-126_S3, S3
*Elset, elset=_Surf-Segment-127_S3, internal, instance=Airfoil-1
 529,
*Elset, elset=_Surf-Segment-127_S1, internal, instance=Airfoil-1
 533,
*Surface, type=ELEMENT, name=Surf-Segment-127
_Surf-Segment-127_S3, S3
_Surf-Segment-127_S1, S1
*Elset, elset=_Surf-Segment-128_S4, internal, instance=Airfoil-1
 532, 534
*Surface, type=ELEMENT, name=Surf-Segment-128
_Surf-Segment-128_S4, S4
*Elset, elset=_Surf-Segment-129_S4, internal, instance=Airfoil-1
 537, 785
*Surface, type=ELEMENT, name=Surf-Segment-129
_Surf-Segment-129_S4, S4
*Elset, elset=_Surf-Segment-130_S4, internal, instance=Airfoil-1
 539, 786
*Surface, type=ELEMENT, name=Surf-Segment-130
_Surf-Segment-130_S4, S4
*Elset, elset=_Surf-Segment-131_S4, internal, instance=Airfoil-1
 727, 728
*Surface, type=ELEMENT, name=Surf-Segment-131
_Surf-Segment-131_S4, S4
*Elset, elset=_Surf-Segment-132_S2, internal, instance=Airfoil-1
 788, 922
*Surface, type=ELEMENT, name=Surf-Segment-132
_Surf-Segment-132_S2, S2
*Elset, elset=_Surf-Segment-133_S4, internal, instance=Airfoil-1
 40,
*Elset, elset=_Surf-Segment-133_S2, internal, instance=Airfoil-1
 789,
*Surface, type=ELEMENT, name=Surf-Segment-133
_Surf-Segment-133_S4, S4
_Surf-Segment-133_S2, S2
*Elset, elset=_Surf-Segment-134_S4, internal, instance=Airfoil-1
 39, 41
*Surface, type=ELEMENT, name=Surf-Segment-134
_Surf-Segment-134_S4, S4
*Elset, elset=_Surf-Segment-135_S4, internal, instance=Airfoil-1
 42,
*Elset, elset=_Surf-Segment-135_S2, internal, instance=Airfoil-1
 836,
*Surface, type=ELEMENT, name=Surf-Segment-135
_Surf-Segment-135_S4, S4
_Surf-Segment-135_S2, S2
*Elset, elset=_Surf-Segment-136_S2, internal, instance=Airfoil-1
 791, 906
*Surface, type=ELEMENT, name=Surf-Segment-136
_Surf-Segment-136_S2, S2
*Elset, elset=_Surf-Segment-137_S2, internal, instance=Airfoil-1
 45,
*Elset, elset=_Surf-Segment-137_S3, internal, instance=Airfoil-1
 46,
*Surface, type=ELEMENT, name=Surf-Segment-137
_Surf-Segment-137_S2, S2
_Surf-Segment-137_S3, S3
*Elset, elset=_Surf-Segment-138_S4, internal, instance=Airfoil-1
 344,
*Elset, elset=_Surf-Segment-138_S2, internal, instance=Airfoil-1
 792,
*Surface, type=ELEMENT, name=Surf-Segment-138
_Surf-Segment-138_S4, S4
_Surf-Segment-138_S2, S2
*Elset, elset=_Surf-Segment-139_S4, internal, instance=Airfoil-1
 337,
*Elset, elset=_Surf-Segment-139_S2, internal, instance=Airfoil-1
 793,
*Surface, type=ELEMENT, name=Surf-Segment-139
_Surf-Segment-139_S4, S4
_Surf-Segment-139_S2, S2
*Elset, elset=_Surf-Segment-140_S4, internal, instance=Airfoil-1
 331,
*Elset, elset=_Surf-Segment-140_S1, internal, instance=Airfoil-1
 794,
*Surface, type=ELEMENT, name=Surf-Segment-140
_Surf-Segment-140_S4, S4
_Surf-Segment-140_S1, S1
*Elset, elset=_Surf-Segment-141_S1, internal, instance=Airfoil-1
 326, 795
*Surface, type=ELEMENT, name=Surf-Segment-141
_Surf-Segment-141_S1, S1
*Elset, elset=_Surf-Segment-142_S1, internal, instance=Airfoil-1
 319, 796
*Surface, type=ELEMENT, name=Surf-Segment-142
_Surf-Segment-142_S1, S1
*Elset, elset=_Surf-Segment-143_S1, internal, instance=Airfoil-1
 313, 797
*Surface, type=ELEMENT, name=Surf-Segment-143
_Surf-Segment-143_S1, S1
*Elset, elset=_Surf-Segment-144_S1, internal, instance=Airfoil-1
 307, 798
*Surface, type=ELEMENT, name=Surf-Segment-144
_Surf-Segment-144_S1, S1
*Elset, elset=_Surf-Segment-145_S1, internal, instance=Airfoil-1
 300, 301
*Surface, type=ELEMENT, name=Surf-Segment-145
_Surf-Segment-145_S1, S1
*Elset, elset=_Surf-Segment-146_S1, internal, instance=Airfoil-1
 292, 293
*Surface, type=ELEMENT, name=Surf-Segment-146
_Surf-Segment-146_S1, S1
*Elset, elset=_Surf-Segment-147_S1, internal, instance=Airfoil-1
 280, 586
*Surface, type=ELEMENT, name=Surf-Segment-147
_Surf-Segment-147_S1, S1
*Elset, elset=_Surf-Segment-148_S1, internal, instance=Airfoil-1
 279,
*Elset, elset=_Surf-Segment-148_S3, internal, instance=Airfoil-1
 281,
*Surface, type=ELEMENT, name=Surf-Segment-148
_Surf-Segment-148_S1, S1
_Surf-Segment-148_S3, S3
*Elset, elset=_Surf-Segment-149_S3, internal, instance=Airfoil-1
 282, 923
*Surface, type=ELEMENT, name=Surf-Segment-149
_Surf-Segment-149_S3, S3
*Elset, elset=_Surf-Segment-150_S3, internal, instance=Airfoil-1
 545, 548
*Surface, type=ELEMENT, name=Surf-Segment-150
_Surf-Segment-150_S3, S3
*Elset, elset=_Surf-Segment-151_S3, internal, instance=Airfoil-1
 550, 908
*Surface, type=ELEMENT, name=Surf-Segment-151
_Surf-Segment-151_S3, S3
*Elset, elset=_Surf-Segment-152_S3, internal, instance=Airfoil-1
 262, 263
*Surface, type=ELEMENT, name=Surf-Segment-152
_Surf-Segment-152_S3, S3
*Elset, elset=_Surf-Segment-153_S3, internal, instance=Airfoil-1
 588, 589
*Surface, type=ELEMENT, name=Surf-Segment-153
_Surf-Segment-153_S3, S3
*Elset, elset=_Surf-Segment-154_S3, internal, instance=Airfoil-1
 253, 590
*Surface, type=ELEMENT, name=Surf-Segment-154
_Surf-Segment-154_S3, S3
*Elset, elset=_Surf-Segment-155_S1, internal, instance=Airfoil-1
 247, 248
*Surface, type=ELEMENT, name=Surf-Segment-155
_Surf-Segment-155_S1, S1
*Elset, elset=_Surf-Segment-156_S3, internal, instance=Airfoil-1
 242, 591
*Surface, type=ELEMENT, name=Surf-Segment-156
_Surf-Segment-156_S3, S3
*Elset, elset=_Surf-Segment-157_S3, internal, instance=Airfoil-1
 592,
*Elset, elset=_Surf-Segment-157_S1, internal, instance=Airfoil-1
 900,
*Surface, type=ELEMENT, name=Surf-Segment-157
_Surf-Segment-157_S3, S3
_Surf-Segment-157_S1, S1
*Elset, elset=_Surf-Segment-158_S1, internal, instance=Airfoil-1
 232,
*Elset, elset=_Surf-Segment-158_S3, internal, instance=Airfoil-1
 593,
*Surface, type=ELEMENT, name=Surf-Segment-158
_Surf-Segment-158_S1, S1
_Surf-Segment-158_S3, S3
*Elset, elset=_Surf-Segment-159_S3, internal, instance=Airfoil-1
 594,
*Elset, elset=_Surf-Segment-159_S1, internal, instance=Airfoil-1
 915,
*Surface, type=ELEMENT, name=Surf-Segment-159
_Surf-Segment-159_S3, S3
_Surf-Segment-159_S1, S1
*Elset, elset=_Surf-Segment-160_S3, internal, instance=Airfoil-1
 220,
*Elset, elset=_Surf-Segment-160_S1, internal, instance=Airfoil-1
 800,
*Surface, type=ELEMENT, name=Surf-Segment-160
_Surf-Segment-160_S3, S3
_Surf-Segment-160_S1, S1
*Elset, elset=_Surf-Segment-161_S3, internal, instance=Airfoil-1
 596,
*Elset, elset=_Surf-Segment-161_S1, internal, instance=Airfoil-1
 945,
*Surface, type=ELEMENT, name=Surf-Segment-161
_Surf-Segment-161_S3, S3
_Surf-Segment-161_S1, S1
*Elset, elset=_Surf-Segment-162_S3, internal, instance=Airfoil-1
 801, 933
*Surface, type=ELEMENT, name=Surf-Segment-162
_Surf-Segment-162_S3, S3
*Elset, elset=_Surf-Segment-163_S3, internal, instance=Airfoil-1
 553, 802
*Surface, type=ELEMENT, name=Surf-Segment-163
_Surf-Segment-163_S3, S3
*Elset, elset=_Surf-Segment-164_S1, internal, instance=Airfoil-1
 210,
*Elset, elset=_Surf-Segment-164_S3, internal, instance=Airfoil-1
 803,
*Surface, type=ELEMENT, name=Surf-Segment-164
_Surf-Segment-164_S1, S1
_Surf-Segment-164_S3, S3
*Elset, elset=_Surf-Segment-165_S1, internal, instance=Airfoil-1
 204,
*Elset, elset=_Surf-Segment-165_S3, internal, instance=Airfoil-1
 919,
*Surface, type=ELEMENT, name=Surf-Segment-165
_Surf-Segment-165_S1, S1
_Surf-Segment-165_S3, S3
*Elset, elset=_Surf-Segment-166_S1, internal, instance=Airfoil-1
 554,
*Elset, elset=_Surf-Segment-166_S3, internal, instance=Airfoil-1
 935,
*Surface, type=ELEMENT, name=Surf-Segment-166
_Surf-Segment-166_S1, S1
_Surf-Segment-166_S3, S3
*Elset, elset=_Surf-Segment-167_S3, internal, instance=Airfoil-1
 198,
*Elset, elset=_Surf-Segment-167_S1, internal, instance=Airfoil-1
 602,
*Surface, type=ELEMENT, name=Surf-Segment-167
_Surf-Segment-167_S3, S3
_Surf-Segment-167_S1, S1
*Elset, elset=_Surf-Segment-168_S1, internal, instance=Airfoil-1
 199, 804
*Surface, type=ELEMENT, name=Surf-Segment-168
_Surf-Segment-168_S1, S1
*Elset, elset=_Surf-Segment-169_S1, internal, instance=Airfoil-1
 185, 805
*Surface, type=ELEMENT, name=Surf-Segment-169
_Surf-Segment-169_S1, S1
*Elset, elset=_Surf-Segment-170_S1, internal, instance=Airfoil-1
 187, 806
*Surface, type=ELEMENT, name=Surf-Segment-170
_Surf-Segment-170_S1, S1
*Elset, elset=_Surf-Segment-171_S1, internal, instance=Airfoil-1
 556, 807
*Surface, type=ELEMENT, name=Surf-Segment-171
_Surf-Segment-171_S1, S1
*Elset, elset=_Surf-Segment-172_S3, internal, instance=Airfoil-1
 560,
*Elset, elset=_Surf-Segment-172_S1, internal, instance=Airfoil-1
 892,
*Surface, type=ELEMENT, name=Surf-Segment-172
_Surf-Segment-172_S3, S3
_Surf-Segment-172_S1, S1
*Elset, elset=_Surf-Segment-173_S3, internal, instance=Airfoil-1
 562,
*Elset, elset=_Surf-Segment-173_S1, internal, instance=Airfoil-1
 886,
*Surface, type=ELEMENT, name=Surf-Segment-173
_Surf-Segment-173_S3, S3
_Surf-Segment-173_S1, S1
*Elset, elset=_Surf-Segment-174_S3, internal, instance=Airfoil-1
 564,
*Elset, elset=_Surf-Segment-174_S1, internal, instance=Airfoil-1
 880,
*Surface, type=ELEMENT, name=Surf-Segment-174
_Surf-Segment-174_S3, S3
_Surf-Segment-174_S1, S1
*Elset, elset=_Surf-Segment-175_S2, internal, instance=Airfoil-1
 566,
*Elset, elset=_Surf-Segment-175_S4, internal, instance=Airfoil-1
 877,
*Surface, type=ELEMENT, name=Surf-Segment-175
_Surf-Segment-175_S2, S2
_Surf-Segment-175_S4, S4
*Elset, elset=_Surf-Segment-176_S2, internal, instance=Airfoil-1
 569,
*Elset, elset=_Surf-Segment-176_S4, internal, instance=Airfoil-1
 870,
*Surface, type=ELEMENT, name=Surf-Segment-176
_Surf-Segment-176_S2, S2
_Surf-Segment-176_S4, S4
*Elset, elset=_Surf-Segment-177_S2, internal, instance=Airfoil-1
 571,
*Elset, elset=_Surf-Segment-177_S4, internal, instance=Airfoil-1
 869,
*Surface, type=ELEMENT, name=Surf-Segment-177
_Surf-Segment-177_S2, S2
_Surf-Segment-177_S4, S4
*Elset, elset=_Surf-Segment-178_S4, internal, instance=Airfoil-1
 573,
*Elset, elset=_Surf-Segment-178_S1, internal, instance=Airfoil-1
 808,
*Surface, type=ELEMENT, name=Surf-Segment-178
_Surf-Segment-178_S4, S4
_Surf-Segment-178_S1, S1
*Elset, elset=_Surf-Segment-179_S3, internal, instance=Airfoil-1
  10, 809
*Surface, type=ELEMENT, name=Surf-Segment-179
_Surf-Segment-179_S3, S3
*Elset, elset=_Surf-Segment-180_S3, internal, instance=Airfoil-1
 575, 810
*Surface, type=ELEMENT, name=Surf-Segment-180
_Surf-Segment-180_S3, S3
*Elset, elset=_Surf-Segment-181_S1, internal, instance=Airfoil-1
 195,
*Elset, elset=_Surf-Segment-181_S3, internal, instance=Airfoil-1
 875,
*Surface, type=ELEMENT, name=Surf-Segment-181
_Surf-Segment-181_S1, S1
_Surf-Segment-181_S3, S3
*Elset, elset=_Surf-Segment-182_S4, internal, instance=Airfoil-1
 194, 730
*Surface, type=ELEMENT, name=Surf-Segment-182
_Surf-Segment-182_S4, S4
*Elset, elset=_Surf-Segment-183_S1, internal, instance=Airfoil-1
 193,
*Elset, elset=_Surf-Segment-183_S3, internal, instance=Airfoil-1
 626,
*Surface, type=ELEMENT, name=Surf-Segment-183
_Surf-Segment-183_S1, S1
_Surf-Segment-183_S3, S3
*Elset, elset=_Surf-Segment-184_S1, internal, instance=Airfoil-1
 192,
*Elset, elset=_Surf-Segment-184_S3, internal, instance=Airfoil-1
 627,
*Surface, type=ELEMENT, name=Surf-Segment-184
_Surf-Segment-184_S1, S1
_Surf-Segment-184_S3, S3
*Elset, elset=_Surf-Segment-185_S3, internal, instance=Airfoil-1
 190, 191
*Surface, type=ELEMENT, name=Surf-Segment-185
_Surf-Segment-185_S3, S3
*Elset, elset=_Surf-Segment-186_S3, internal, instance=Airfoil-1
 168,
*Elset, elset=_Surf-Segment-186_S1, internal, instance=Airfoil-1
 189,
*Surface, type=ELEMENT, name=Surf-Segment-186
_Surf-Segment-186_S3, S3
_Surf-Segment-186_S1, S1
*Elset, elset=_Surf-Segment-187_S3, internal, instance=Airfoil-1
 166,
*Elset, elset=_Surf-Segment-187_S1, internal, instance=Airfoil-1
 167,
*Surface, type=ELEMENT, name=Surf-Segment-187
_Surf-Segment-187_S3, S3
_Surf-Segment-187_S1, S1
*Elset, elset=_Surf-Segment-188_S2, internal, instance=Airfoil-1
 13,
*Elset, elset=_Surf-Segment-188_S1, internal, instance=Airfoil-1
 165,
*Surface, type=ELEMENT, name=Surf-Segment-188
_Surf-Segment-188_S2, S2
_Surf-Segment-188_S1, S1
*Elset, elset=_Surf-Segment-189_S2, internal, instance=Airfoil-1
 13,
*Elset, elset=_Surf-Segment-189_S1, internal, instance=Airfoil-1
 165,
*Surface, type=ELEMENT, name=Surf-Segment-189
_Surf-Segment-189_S2, S2
_Surf-Segment-189_S1, S1
*Elset, elset=_Surf-Segment-190_S3, internal, instance=Airfoil-1
 13,
*Surface, type=ELEMENT, name=Surf-Segment-190
_Surf-Segment-190_S3, S3
*Elset, elset=_Surf-Segment-191_S4, internal, instance=Airfoil-1
 164,
*Surface, type=ELEMENT, name=Surf-Segment-191
_Surf-Segment-191_S4, S4
*End Assembly
** 
** MATERIALS
** 
*Material, name=PLA
*Density
1240.,
*Elastic
 2.5e+09, 0.3
** 
** BOUNDARY CONDITIONS
** 
** Name: BC-Hole1 Type: Displacement/Rotation
*Boundary
_PickedSet7, 1, 1
_PickedSet7, 2, 2
_PickedSet7, 6, 6
** Name: BC-Hole2 Type: Displacement/Rotation
*Boundary
_PickedSet8, 1, 1
_PickedSet8, 2, 2
_PickedSet8, 6, 6
** ----------------------------------------------------------------
** 
** STEP: Step-1
** 
*Step, name=Step-1, nlgeom=NO
Step statico generale per analisi quasi-statica.
*Static
1., 1., 1e-05, 1.
** 
** LOADS
** 
** Name: Load-Segment-0   Type: Pressure
*Dsload
Surf-Segment-0, P, 0.0113007
** Name: Load-Segment-1   Type: Pressure
*Dsload
Surf-Segment-1, P, 0.0257411
** Name: Load-Segment-2   Type: Pressure
*Dsload
Surf-Segment-2, P, 0.00542873
** Name: Load-Segment-3   Type: Pressure
*Dsload
Surf-Segment-3, P, 4.59599e-05
** Name: Load-Segment-4   Type: Pressure
*Dsload
Surf-Segment-4, P, 0.0283646
** Name: Load-Segment-5   Type: Pressure
*Dsload
Surf-Segment-5, P, 0.0543419
** Name: Load-Segment-6   Type: Pressure
*Dsload
Surf-Segment-6, P, 0.0791839
** Name: Load-Segment-7   Type: Pressure
*Dsload
Surf-Segment-7, P, 0.103205
** Name: Load-Segment-8   Type: Pressure
*Dsload
Surf-Segment-8, P, 0.126172
** Name: Load-Segment-9   Type: Pressure
*Dsload
Surf-Segment-9, P, 0.147993
** Name: Load-Segment-10   Type: Pressure
*Dsload
Surf-Segment-10, P, 0.168579
** Name: Load-Segment-11   Type: Pressure
*Dsload
Surf-Segment-11, P, 0.187654
** Name: Load-Segment-12   Type: Pressure
*Dsload
Surf-Segment-12, P, 0.204715
** Name: Load-Segment-13   Type: Pressure
*Dsload
Surf-Segment-13, P, 0.219453
** Name: Load-Segment-14   Type: Pressure
*Dsload
Surf-Segment-14, P, 0.231764
** Name: Load-Segment-15   Type: Pressure
*Dsload
Surf-Segment-15, P, 0.241088
** Name: Load-Segment-16   Type: Pressure
*Dsload
Surf-Segment-16, P, 0.246682
** Name: Load-Segment-17   Type: Pressure
*Dsload
Surf-Segment-17, P, 0.248362
** Name: Load-Segment-18   Type: Pressure
*Dsload
Surf-Segment-18, P, 0.246674
** Name: Load-Segment-19   Type: Pressure
*Dsload
Surf-Segment-19, P, 0.242934
** Name: Load-Segment-20   Type: Pressure
*Dsload
Surf-Segment-20, P, 0.239697
** Name: Load-Segment-21   Type: Pressure
*Dsload
Surf-Segment-21, P, 0.238445
** Name: Load-Segment-22   Type: Pressure
*Dsload
Surf-Segment-22, P, 0.238863
** Name: Load-Segment-23   Type: Pressure
*Dsload
Surf-Segment-23, P, 0.240901
** Name: Load-Segment-24   Type: Pressure
*Dsload
Surf-Segment-24, P, 0.244507
** Name: Load-Segment-25   Type: Pressure
*Dsload
Surf-Segment-25, P, 0.249405
** Name: Load-Segment-26   Type: Pressure
*Dsload
Surf-Segment-26, P, 0.255825
** Name: Load-Segment-27   Type: Pressure
*Dsload
Surf-Segment-27, P, 0.263741
** Name: Load-Segment-28   Type: Pressure
*Dsload
Surf-Segment-28, P, 0.272544
** Name: Load-Segment-29   Type: Pressure
*Dsload
Surf-Segment-29, P, 0.282185
** Name: Load-Segment-30   Type: Pressure
*Dsload
Surf-Segment-30, P, 0.292351
** Name: Load-Segment-31   Type: Pressure
*Dsload
Surf-Segment-31, P, 0.302631
** Name: Load-Segment-32   Type: Pressure
*Dsload
Surf-Segment-32, P, 0.313014
** Name: Load-Segment-33   Type: Pressure
*Dsload
Surf-Segment-33, P, 0.323443
** Name: Load-Segment-34   Type: Pressure
*Dsload
Surf-Segment-34, P, 0.334014
** Name: Load-Segment-35   Type: Pressure
*Dsload
Surf-Segment-35, P, 0.344722
** Name: Load-Segment-36   Type: Pressure
*Dsload
Surf-Segment-36, P, 0.35546
** Name: Load-Segment-37   Type: Pressure
*Dsload
Surf-Segment-37, P, 0.366113
** Name: Load-Segment-38   Type: Pressure
*Dsload
Surf-Segment-38, P, 0.376507
** Name: Load-Segment-39   Type: Pressure
*Dsload
Surf-Segment-39, P, 0.386405
** Name: Load-Segment-40   Type: Pressure
*Dsload
Surf-Segment-40, P, 0.395722
** Name: Load-Segment-41   Type: Pressure
*Dsload
Surf-Segment-41, P, 0.404357
** Name: Load-Segment-42   Type: Pressure
*Dsload
Surf-Segment-42, P, 0.412398
** Name: Load-Segment-43   Type: Pressure
*Dsload
Surf-Segment-43, P, 0.419998
** Name: Load-Segment-44   Type: Pressure
*Dsload
Surf-Segment-44, P, 0.427266
** Name: Load-Segment-45   Type: Pressure
*Dsload
Surf-Segment-45, P, 0.434475
** Name: Load-Segment-46   Type: Pressure
*Dsload
Surf-Segment-46, P, 0.441766
** Name: Load-Segment-47   Type: Pressure
*Dsload
Surf-Segment-47, P, 0.449754
** Name: Load-Segment-48   Type: Pressure
*Dsload
Surf-Segment-48, P, 0.458897
** Name: Load-Segment-49   Type: Pressure
*Dsload
Surf-Segment-49, P, 0.469998
** Name: Load-Segment-50   Type: Pressure
*Dsload
Surf-Segment-50, P, 0.48354
** Name: Load-Segment-51   Type: Pressure
*Dsload
Surf-Segment-51, P, 0.499505
** Name: Load-Segment-52   Type: Pressure
*Dsload
Surf-Segment-52, P, 0.517955
** Name: Load-Segment-53   Type: Pressure
*Dsload
Surf-Segment-53, P, 0.538438
** Name: Load-Segment-54   Type: Pressure
*Dsload
Surf-Segment-54, P, 0.560734
** Name: Load-Segment-55   Type: Pressure
*Dsload
Surf-Segment-55, P, 0.584141
** Name: Load-Segment-56   Type: Pressure
*Dsload
Surf-Segment-56, P, 0.60764
** Name: Load-Segment-57   Type: Pressure
*Dsload
Surf-Segment-57, P, 0.630726
** Name: Load-Segment-58   Type: Pressure
*Dsload
Surf-Segment-58, P, 0.65127
** Name: Load-Segment-59   Type: Pressure
*Dsload
Surf-Segment-59, P, 0.668423
** Name: Load-Segment-60   Type: Pressure
*Dsload
Surf-Segment-60, P, 0.681069
** Name: Load-Segment-61   Type: Pressure
*Dsload
Surf-Segment-61, P, 0.688442
** Name: Load-Segment-62   Type: Pressure
*Dsload
Surf-Segment-62, P, 0.69188
** Name: Load-Segment-63   Type: Pressure
*Dsload
Surf-Segment-63, P, 0.691966
** Name: Load-Segment-64   Type: Pressure
*Dsload
Surf-Segment-64, P, 0.690299
** Name: Load-Segment-65   Type: Pressure
*Dsload
Surf-Segment-65, P, 0.688019
** Name: Load-Segment-66   Type: Pressure
*Dsload
Surf-Segment-66, P, 0.686076
** Name: Load-Segment-67   Type: Pressure
*Dsload
Surf-Segment-67, P, 0.685222
** Name: Load-Segment-68   Type: Pressure
*Dsload
Surf-Segment-68, P, 0.68744
** Name: Load-Segment-69   Type: Pressure
*Dsload
Surf-Segment-69, P, 0.694173
** Name: Load-Segment-70   Type: Pressure
*Dsload
Surf-Segment-70, P, 0.705513
** Name: Load-Segment-71   Type: Pressure
*Dsload
Surf-Segment-71, P, 0.723846
** Name: Load-Segment-72   Type: Pressure
*Dsload
Surf-Segment-72, P, 0.748443
** Name: Load-Segment-73   Type: Pressure
*Dsload
Surf-Segment-73, P, 0.776565
** Name: Load-Segment-74   Type: Pressure
*Dsload
Surf-Segment-74, P, 0.80748
** Name: Load-Segment-75   Type: Pressure
*Dsload
Surf-Segment-75, P, 0.839723
** Name: Load-Segment-76   Type: Pressure
*Dsload
Surf-Segment-76, P, 0.872001
** Name: Load-Segment-77   Type: Pressure
*Dsload
Surf-Segment-77, P, 0.903682
** Name: Load-Segment-78   Type: Pressure
*Dsload
Surf-Segment-78, P, 0.934226
** Name: Load-Segment-79   Type: Pressure
*Dsload
Surf-Segment-79, P, 0.963195
** Name: Load-Segment-80   Type: Pressure
*Dsload
Surf-Segment-80, P, 0.990282
** Name: Load-Segment-81   Type: Pressure
*Dsload
Surf-Segment-81, P, 1.01515
** Name: Load-Segment-82   Type: Pressure
*Dsload
Surf-Segment-82, P, 1.03742
** Name: Load-Segment-83   Type: Pressure
*Dsload
Surf-Segment-83, P, 1.05642
** Name: Load-Segment-84   Type: Pressure
*Dsload
Surf-Segment-84, P, 1.07135
** Name: Load-Segment-85   Type: Pressure
*Dsload
Surf-Segment-85, P, 1.0818
** Name: Load-Segment-86   Type: Pressure
*Dsload
Surf-Segment-86, P, 1.08782
** Name: Load-Segment-87   Type: Pressure
*Dsload
Surf-Segment-87, P, 1.0897
** Name: Load-Segment-88   Type: Pressure
*Dsload
Surf-Segment-88, P, 1.08696
** Name: Load-Segment-89   Type: Pressure
*Dsload
Surf-Segment-89, P, 1.077
** Name: Load-Segment-90   Type: Pressure
*Dsload
Surf-Segment-90, P, 1.05368
** Name: Load-Segment-91   Type: Pressure
*Dsload
Surf-Segment-91, P, 1.01092
** Name: Load-Segment-92   Type: Pressure
*Dsload
Surf-Segment-92, P, 0.941424
** Name: Load-Segment-93   Type: Pressure
*Dsload
Surf-Segment-93, P, 0.812783
** Name: Load-Segment-94   Type: Pressure
*Dsload
Surf-Segment-94, P, 0.362607
** Name: Load-Segment-95   Type: Pressure
*Dsload
Surf-Segment-95, P, -0.00170994
** Name: Load-Segment-96   Type: Pressure
*Dsload
Surf-Segment-96, P, 0.527994
** Name: Load-Segment-97   Type: Pressure
*Dsload
Surf-Segment-97, P, 1.01322
** Name: Load-Segment-98   Type: Pressure
*Dsload
Surf-Segment-98, P, 0.872481
** Name: Load-Segment-99   Type: Pressure
*Dsload
Surf-Segment-99, P, 0.696374
** Name: Load-Segment-100   Type: Pressure
*Dsload
Surf-Segment-100, P, 0.56034
** Name: Load-Segment-101   Type: Pressure
*Dsload
Surf-Segment-101, P, 0.452058
** Name: Load-Segment-102   Type: Pressure
*Dsload
Surf-Segment-102, P, 0.369446
** Name: Load-Segment-103   Type: Pressure
*Dsload
Surf-Segment-103, P, 0.314105
** Name: Load-Segment-104   Type: Pressure
*Dsload
Surf-Segment-104, P, 0.27753
** Name: Load-Segment-105   Type: Pressure
*Dsload
Surf-Segment-105, P, 0.251544
** Name: Load-Segment-106   Type: Pressure
*Dsload
Surf-Segment-106, P, 0.232483
** Name: Load-Segment-107   Type: Pressure
*Dsload
Surf-Segment-107, P, 0.217934
** Name: Load-Segment-108   Type: Pressure
*Dsload
Surf-Segment-108, P, 0.206591
** Name: Load-Segment-109   Type: Pressure
*Dsload
Surf-Segment-109, P, 0.197417
** Name: Load-Segment-110   Type: Pressure
*Dsload
Surf-Segment-110, P, 0.189915
** Name: Load-Segment-111   Type: Pressure
*Dsload
Surf-Segment-111, P, 0.183781
** Name: Load-Segment-112   Type: Pressure
*Dsload
Surf-Segment-112, P, 0.178688
** Name: Load-Segment-113   Type: Pressure
*Dsload
Surf-Segment-113, P, 0.174275
** Name: Load-Segment-114   Type: Pressure
*Dsload
Surf-Segment-114, P, 0.170289
** Name: Load-Segment-115   Type: Pressure
*Dsload
Surf-Segment-115, P, 0.166729
** Name: Load-Segment-116   Type: Pressure
*Dsload
Surf-Segment-116, P, 0.163657
** Name: Load-Segment-117   Type: Pressure
*Dsload
Surf-Segment-117, P, 0.161084
** Name: Load-Segment-118   Type: Pressure
*Dsload
Surf-Segment-118, P, 0.159128
** Name: Load-Segment-119   Type: Pressure
*Dsload
Surf-Segment-119, P, 0.158324
** Name: Load-Segment-120   Type: Pressure
*Dsload
Surf-Segment-120, P, 0.158857
** Name: Load-Segment-121   Type: Pressure
*Dsload
Surf-Segment-121, P, 0.160487
** Name: Load-Segment-122   Type: Pressure
*Dsload
Surf-Segment-122, P, 0.163264
** Name: Load-Segment-123   Type: Pressure
*Dsload
Surf-Segment-123, P, 0.166825
** Name: Load-Segment-124   Type: Pressure
*Dsload
Surf-Segment-124, P, 0.170836
** Name: Load-Segment-125   Type: Pressure
*Dsload
Surf-Segment-125, P, 0.175236
** Name: Load-Segment-126   Type: Pressure
*Dsload
Surf-Segment-126, P, 0.179793
** Name: Load-Segment-127   Type: Pressure
*Dsload
Surf-Segment-127, P, 0.184242
** Name: Load-Segment-128   Type: Pressure
*Dsload
Surf-Segment-128, P, 0.188262
** Name: Load-Segment-129   Type: Pressure
*Dsload
Surf-Segment-129, P, 0.191633
** Name: Load-Segment-130   Type: Pressure
*Dsload
Surf-Segment-130, P, 0.193816
** Name: Load-Segment-131   Type: Pressure
*Dsload
Surf-Segment-131, P, 0.194865
** Name: Load-Segment-132   Type: Pressure
*Dsload
Surf-Segment-132, P, 0.194763
** Name: Load-Segment-133   Type: Pressure
*Dsload
Surf-Segment-133, P, 0.193728
** Name: Load-Segment-134   Type: Pressure
*Dsload
Surf-Segment-134, P, 0.192368
** Name: Load-Segment-135   Type: Pressure
*Dsload
Surf-Segment-135, P, 0.190765
** Name: Load-Segment-136   Type: Pressure
*Dsload
Surf-Segment-136, P, 0.189181
** Name: Load-Segment-137   Type: Pressure
*Dsload
Surf-Segment-137, P, 0.187711
** Name: Load-Segment-138   Type: Pressure
*Dsload
Surf-Segment-138, P, 0.186452
** Name: Load-Segment-139   Type: Pressure
*Dsload
Surf-Segment-139, P, 0.185584
** Name: Load-Segment-140   Type: Pressure
*Dsload
Surf-Segment-140, P, 0.185172
** Name: Load-Segment-141   Type: Pressure
*Dsload
Surf-Segment-141, P, 0.185349
** Name: Load-Segment-142   Type: Pressure
*Dsload
Surf-Segment-142, P, 0.186087
** Name: Load-Segment-143   Type: Pressure
*Dsload
Surf-Segment-143, P, 0.1872
** Name: Load-Segment-144   Type: Pressure
*Dsload
Surf-Segment-144, P, 0.188582
** Name: Load-Segment-145   Type: Pressure
*Dsload
Surf-Segment-145, P, 0.189936
** Name: Load-Segment-146   Type: Pressure
*Dsload
Surf-Segment-146, P, 0.191214
** Name: Load-Segment-147   Type: Pressure
*Dsload
Surf-Segment-147, P, 0.192383
** Name: Load-Segment-148   Type: Pressure
*Dsload
Surf-Segment-148, P, 0.193422
** Name: Load-Segment-149   Type: Pressure
*Dsload
Surf-Segment-149, P, 0.194315
** Name: Load-Segment-150   Type: Pressure
*Dsload
Surf-Segment-150, P, 0.194983
** Name: Load-Segment-151   Type: Pressure
*Dsload
Surf-Segment-151, P, 0.195337
** Name: Load-Segment-152   Type: Pressure
*Dsload
Surf-Segment-152, P, 0.195375
** Name: Load-Segment-153   Type: Pressure
*Dsload
Surf-Segment-153, P, 0.195191
** Name: Load-Segment-154   Type: Pressure
*Dsload
Surf-Segment-154, P, 0.194835
** Name: Load-Segment-155   Type: Pressure
*Dsload
Surf-Segment-155, P, 0.19439
** Name: Load-Segment-156   Type: Pressure
*Dsload
Surf-Segment-156, P, 0.193806
** Name: Load-Segment-157   Type: Pressure
*Dsload
Surf-Segment-157, P, 0.193086
** Name: Load-Segment-158   Type: Pressure
*Dsload
Surf-Segment-158, P, 0.192248
** Name: Load-Segment-159   Type: Pressure
*Dsload
Surf-Segment-159, P, 0.191286
** Name: Load-Segment-160   Type: Pressure
*Dsload
Surf-Segment-160, P, 0.190232
** Name: Load-Segment-161   Type: Pressure
*Dsload
Surf-Segment-161, P, 0.1891
** Name: Load-Segment-162   Type: Pressure
*Dsload
Surf-Segment-162, P, 0.187947
** Name: Load-Segment-163   Type: Pressure
*Dsload
Surf-Segment-163, P, 0.186989
** Name: Load-Segment-164   Type: Pressure
*Dsload
Surf-Segment-164, P, 0.186444
** Name: Load-Segment-165   Type: Pressure
*Dsload
Surf-Segment-165, P, 0.186398
** Name: Load-Segment-166   Type: Pressure
*Dsload
Surf-Segment-166, P, 0.18717
** Name: Load-Segment-167   Type: Pressure
*Dsload
Surf-Segment-167, P, 0.188769
** Name: Load-Segment-168   Type: Pressure
*Dsload
Surf-Segment-168, P, 0.190996
** Name: Load-Segment-169   Type: Pressure
*Dsload
Surf-Segment-169, P, 0.194463
** Name: Load-Segment-170   Type: Pressure
*Dsload
Surf-Segment-170, P, 0.199499
** Name: Load-Segment-171   Type: Pressure
*Dsload
Surf-Segment-171, P, 0.20572
** Name: Load-Segment-172   Type: Pressure
*Dsload
Surf-Segment-172, P, 0.212507
** Name: Load-Segment-173   Type: Pressure
*Dsload
Surf-Segment-173, P, 0.218347
** Name: Load-Segment-174   Type: Pressure
*Dsload
Surf-Segment-174, P, 0.22209
** Name: Load-Segment-175   Type: Pressure
*Dsload
Surf-Segment-175, P, 0.223659
** Name: Load-Segment-176   Type: Pressure
*Dsload
Surf-Segment-176, P, 0.22327
** Name: Load-Segment-177   Type: Pressure
*Dsload
Surf-Segment-177, P, 0.221311
** Name: Load-Segment-178   Type: Pressure
*Dsload
Surf-Segment-178, P, 0.218
** Name: Load-Segment-179   Type: Pressure
*Dsload
Surf-Segment-179, P, 0.213407
** Name: Load-Segment-180   Type: Pressure
*Dsload
Surf-Segment-180, P, 0.207713
** Name: Load-Segment-181   Type: Pressure
*Dsload
Surf-Segment-181, P, 0.20116
** Name: Load-Segment-182   Type: Pressure
*Dsload
Surf-Segment-182, P, 0.193813
** Name: Load-Segment-183   Type: Pressure
*Dsload
Surf-Segment-183, P, 0.185614
** Name: Load-Segment-184   Type: Pressure
*Dsload
Surf-Segment-184, P, 0.176087
** Name: Load-Segment-185   Type: Pressure
*Dsload
Surf-Segment-185, P, 0.164608
** Name: Load-Segment-186   Type: Pressure
*Dsload
Surf-Segment-186, P, 0.151441
** Name: Load-Segment-187   Type: Pressure
*Dsload
Surf-Segment-187, P, 0.135629
** Name: Load-Segment-188   Type: Pressure
*Dsload
Surf-Segment-188, P, 0.0497941
** Name: Load-Segment-189   Type: Pressure
*Dsload
Surf-Segment-189, P, -0.027126
** Name: Load-Segment-190   Type: Pressure
*Dsload
Surf-Segment-190, P, -0.0119932
** Name: Load-Segment-191   Type: Pressure
*Dsload
Surf-Segment-191, P, 0.00313959
** 
** OUTPUT REQUESTS
** 
*Restart, write, frequency=0
** 
** FIELD OUTPUT: F-Output-1
** 
*Output, field, variable=PRESELECT
** 
** HISTORY OUTPUT: H-Output-1
** 
*Output, history, variable=PRESELECT
*End Step
