*Heading
** Job name: TopOpt-Job Model name: Model-1
** Generated by: Abaqus/CAE 2024.HF2
*Preprint, echo=NO, model=NO, history=NO, contact=NO
** ----------------------------------------------------------------
** 
** PART INSTANCE: Airfoil-1
** 
*Node
      1,  0.404573649, 0.0106735565
      2,  0.400949985, 0.0070499056
      3,  0.395999998, 0.00572355697
      4,  0.391049981, 0.0070499056
      5,  0.387426347, 0.0106735565
      6,  0.386099994, 0.0156235574
      7,  0.387426347, 0.0205735564
      8,  0.391049981, 0.0241972078
      9,  0.395999998, 0.0255235564
     10,  0.400949985, 0.0241972078
     11,  0.404573649, 0.0205735564
     12,  0.405900002, 0.0156235574
     13,  0.206573635, 0.0106735565
     14,  0.202949986, 0.0070499056
     15,  0.197999984, 0.00572355697
     16,  0.193049982, 0.0070499056
     17,  0.189426333, 0.0106735565
     18,   0.18809998, 0.0156235574
     19,  0.189426333, 0.0205735564
     20,  0.193049982, 0.0241972078
** ... 1865 like lines cut
*Element, type=CPS3
 1, 1006,  794,  790
 2, 1822,  380, 1357
 3,  797,  784,    3
 4, 1746, 1730,  394
 5,   25,  730,  288
 6, 1441, 1266, 1248
 7, 1351, 1256,  344
 8, 1638, 1487, 1293
 9, 1816, 1489,  436
10, 1367, 1323, 1187
11, 1632,  445, 1557
12,  758,  271,  721
13, 1332,  913, 1042
14,  295, 1067, 1305
15, 1412, 1153, 1268
16,  575, 1165, 1769
17, 1171,  324, 1783
18, 1189,  289, 1033
19, 1773, 1804,  438
20, 1442, 1411, 1260
** ... 34 like lines cut
*Element, type=CPS4R
  55,  685,  790,  794,  207
  56,  684,  805,  802,  206
  57, 1006,  790,    4,    5
  58,  797,    3,    4,  790
  59,  784,  783,    2,    3
  60,  809,  498, 1007,  783
  61,  498,  809,  811, 1781
  62,  800,  212,  213, 1111
  63,  688,  820, 1111,  213
  64,  500, 1111,  820, 1075
  65, 1049, 1482, 1293,  501
  66, 1871, 1875, 1603,  363
  67, 1817, 1668, 1617, 1574
  68,  981, 1052, 1299,  531
  69,  531,   95,  625,  981
  70,   96,  532,  981,  625
  71,  532,   96,  626, 1681
  72, 1681,  958, 1041, 1544
  73,  533, 1041,  958, 1219
  74,  435, 1581, 1483, 1289
** ... 1624 like lines cut
*Elset, elset=_Airfoil-1_ALL_ELEMENTS, generate
    1,  1698,     1
*Nset, nset=Airfoil-1__G4, generate
    1,  1885,     1
*Elset, elset=Airfoil-1__G4, generate
    1,  1698,     1
** Section: Section-Airfoil
*Solid Section, elset=Airfoil-1__G4, material=Material-Airfoil
,
*System
*Nset, nset=Set-Airfoil-Faces, generate
    1,  1885,     1
*Elset, elset=Set-Airfoil-Faces, generate
    1,  1698,     1
*Nset, nset=_PickedSet6, generate
 13,  24,   1
*Elset, elset=_PickedSet6
   94,   96,  130,  131,  153,  168,  169,  182,  183,  919, 1111, 1114
*Nset, nset=_PickedSet7, generate
  1,  12,   1
*Elset, elset=_PickedSet7
   57,   58,   59,  110,  112,  116,  117,  728,  754, 1104, 1105, 1108
*Nset, nset=_PickedSet8
 288,
*Nset, nset=_PickedSet9
 288,
*Nset, nset=_PickedSet10
 288,
*Nset, nset=_PickedSet11
 587,
*Nset, nset=_PickedSet12
 29,
*Nset, nset=_PickedSet13
 589,
*Nset, nset=_PickedSet14
 32,
*Nset, nset=_PickedSet15
 33,
*Nset, nset=_PickedSet16
 35,
*Nset, nset=_PickedSet17
 36,
*Nset, nset=_PickedSet18
 593,
*Nset, nset=_PickedSet19
 39,
*Nset, nset=_PickedSet20
 40,
*Nset, nset=_PickedSet21
 42,
*Nset, nset=_PickedSet22
 43,
*Nset, nset=_PickedSet23
 597,
*Nset, nset=_PickedSet24
 46,
*Nset, nset=_PickedSet25
 47,
*Nset, nset=_PickedSet26
 49,
*Nset, nset=_PickedSet27
** ... 345 like lines cut
*Nset, nset=_PickedSet201, generate
    1,  1885,     1
*Elset, elset=_PickedSet201, generate
    1,  1698,     1
** 
** MATERIALS
** 
*Material, name=Material-Airfoil
*Density
2700.,
*Elastic
 7e+10, 0.33
** 
** BOUNDARY CONDITIONS
** 
** Name: BC-Hole1 Type: Displacement/Rotation
*Boundary
_PickedSet6, 1, 1
_PickedSet6, 2, 2
_PickedSet6, 6, 6
** Name: BC-Hole2 Type: Displacement/Rotation
*Boundary
_PickedSet7, 1, 1
_PickedSet7, 2, 2
_PickedSet7, 6, 6
** ----------------------------------------------------------------
** 
** STEP: Step-1
** 
*Step, name=Step-1, nlgeom=NO
*Static
1., 1., 1e-05, 1.
** 
** LOADS
** 
** Name: Force-1   Type: Concentrated force
*Cload
_PickedSet8, 2, 0.00313959
** Name: Force-2   Type: Concentrated force
*Cload
_PickedSet9, 2, -0.0257411
** Name: Force-3   Type: Concentrated force
*Cload
_PickedSet10, 2, -0.0257411
** Name: Force-4   Type: Concentrated force
*Cload
_PickedSet11, 2, 0.0148836
** Name: Force-5   Type: Concentrated force
*Cload
_PickedSet12, 2, -0.0149755
** Name: Force-6   Type: Concentrated force
*Cload
_PickedSet13, 2, -0.0417537
** Name: Force-7   Type: Concentrated force
*Cload
_PickedSet14, 2, -0.0669301
** Name: Force-8   Type: Concentrated force
*Cload
_PickedSet15, 2, -0.0914377
** Name: Force-9   Type: Concentrated force
*Cload
_PickedSet16, 2, -0.114973
** Name: Force-10   Type: Concentrated force
*Cload
_PickedSet17, 2, -0.137372
** Name: Force-11   Type: Concentrated force
*Cload
_PickedSet18, 2, -0.158614
** Name: Force-12   Type: Concentrated force
*Cload
_PickedSet19, 2, -0.178544
** Name: Force-13   Type: Concentrated force
*Cload
_PickedSet20, 2, -0.196764
** Name: Force-14   Type: Concentrated force
*Cload
_PickedSet21, 2, -0.212667
** Name: Force-15   Type: Concentrated force
*Cload
_PickedSet22, 2, -0.22624
** Name: Force-16   Type: Concentrated force
*Cload
_PickedSet23, 2, -0.237287
** Name: Force-17   Type: Concentrated force
*Cload
_PickedSet24, 2, -0.244888
** Name: Force-18   Type: Concentrated force
*Cload
_PickedSet25, 2, -0.248477
** Name: Force-19   Type: Concentrated force
*Cload
_PickedSet26, 2, -0.248248
** Name: Force-20   Type: Concentrated force
*Cload
_PickedSet27, 2, -0.245101
** Name: Force-21   Type: Concentrated force
*Cload
_PickedSet28, 2, -0.240767
** Name: Force-22   Type: Concentrated force
*Cload
_PickedSet29, 2, -0.238627
** Name: Force-23   Type: Concentrated force
*Cload
_PickedSet30, 2, -0.238262
** Name: Force-24   Type: Concentrated force
*Cload
_PickedSet31, 2, -0.239464
** Name: Force-25   Type: Concentrated force
*Cload
_PickedSet32, 2, -0.242338
** Name: Force-26   Type: Concentrated force
*Cload
_PickedSet33, 2, -0.246677
** Name: Force-27   Type: Concentrated force
*Cload
_PickedSet34, 2, -0.252133
** Name: Force-28   Type: Concentrated force
*Cload
_PickedSet35, 2, -0.259518
** Name: Force-29   Type: Concentrated force
*Cload
_PickedSet36, 2, -0.267964
** Name: Force-30   Type: Concentrated force
*Cload
_PickedSet37, 2, -0.277123
** Name: Force-31   Type: Concentrated force
*Cload
_PickedSet38, 2, -0.287246
** Name: Force-32   Type: Concentrated force
*Cload
_PickedSet39, 2, -0.297456
** Name: Force-33   Type: Concentrated force
*Cload
_PickedSet40, 2, -0.307806
** Name: Force-34   Type: Concentrated force
*Cload
_PickedSet41, 2, -0.318222
** Name: Force-35   Type: Concentrated force
*Cload
_PickedSet42, 2, -0.328664
** Name: Force-36   Type: Concentrated force
*Cload
_PickedSet43, 2, -0.339364
** Name: Force-37   Type: Concentrated force
*Cload
_PickedSet44, 2, -0.35008
** Name: Force-38   Type: Concentrated force
*Cload
_PickedSet45, 2, -0.360841
** Name: Force-39   Type: Concentrated force
*Cload
_PickedSet46, 2, -0.371385
** Name: Force-40   Type: Concentrated force
*Cload
_PickedSet47, 2, -0.38163
** Name: Force-41   Type: Concentrated force
*Cload
_PickedSet48, 2, -0.391179
** Name: Force-42   Type: Concentrated force
*Cload
_PickedSet49, 2, -0.400265
** Name: Force-43   Type: Concentrated force
*Cload
_PickedSet50, 2, -0.408449
** Name: Force-44   Type: Concentrated force
*Cload
_PickedSet51, 2, -0.416348
** Name: Force-45   Type: Concentrated force
*Cload
_PickedSet52, 2, -0.423649
** Name: Force-46   Type: Concentrated force
*Cload
_PickedSet53, 2, -0.430882
** Name: Force-47   Type: Concentrated force
*Cload
_PickedSet54, 2, -0.438068
** Name: Force-48   Type: Concentrated force
*Cload
_PickedSet55, 2, -0.445465
** Name: Force-49   Type: Concentrated force
*Cload
_PickedSet56, 2, -0.454042
** Name: Force-50   Type: Concentrated force
*Cload
_PickedSet57, 2, -0.463752
** Name: Force-51   Type: Concentrated force
*Cload
_PickedSet58, 2, -0.476244
** Name: Force-52   Type: Concentrated force
*Cload
_PickedSet59, 2, -0.490837
** Name: Force-53   Type: Concentrated force
*Cload
_PickedSet60, 2, -0.508173
** Name: Force-54   Type: Concentrated force
*Cload
_PickedSet61, 2, -0.527738
** Name: Force-55   Type: Concentrated force
*Cload
_PickedSet62, 2, -0.549138
** Name: Force-56   Type: Concentrated force
*Cload
_PickedSet63, 2, -0.572329
** Name: Force-57   Type: Concentrated force
*Cload
_PickedSet64, 2, -0.595953
** Name: Force-58   Type: Concentrated force
*Cload
_PickedSet65, 2, -0.619326
** Name: Force-59   Type: Concentrated force
*Cload
_PickedSet66, 2, -0.642125
** Name: Force-60   Type: Concentrated force
*Cload
_PickedSet67, 2, -0.660415
** Name: Force-61   Type: Concentrated force
*Cload
_PickedSet68, 2, -0.676431
** Name: Force-62   Type: Concentrated force
*Cload
_PickedSet69, 2, -0.685708
** Name: Force-63   Type: Concentrated force
*Cload
_PickedSet70, 2, -0.691176
** Name: Force-64   Type: Concentrated force
*Cload
_PickedSet71, 2, -0.692584
** Name: Force-65   Type: Concentrated force
*Cload
_PickedSet72, 2, -0.691348
** Name: Force-66   Type: Concentrated force
*Cload
_PickedSet73, 2, -0.68925
** Name: Force-67   Type: Concentrated force
*Cload
_PickedSet74, 2, -0.686788
** Name: Force-68   Type: Concentrated force
*Cload
_PickedSet75, 2, -0.685364
** Name: Force-69   Type: Concentrated force
*Cload
_PickedSet76, 2, -0.68508
** Name: Force-70   Type: Concentrated force
*Cload
_PickedSet77, 2, -0.689801
** Name: Force-71   Type: Concentrated force
*Cload
_PickedSet78, 2, -0.698546
** Name: Force-72   Type: Concentrated force
*Cload
_PickedSet79, 2, -0.712479
** Name: Force-73   Type: Concentrated force
*Cload
_PickedSet80, 2, -0.735213
** Name: Force-74   Type: Concentrated force
*Cload
_PickedSet81, 2, -0.761673
** Name: Force-75   Type: Concentrated force
*Cload
_PickedSet82, 2, -0.791458
** Name: Force-76   Type: Concentrated force
*Cload
_PickedSet83, 2, -0.823502
** Name: Force-77   Type: Concentrated force
*Cload
_PickedSet84, 2, -0.855944
** Name: Force-78   Type: Concentrated force
*Cload
_PickedSet85, 2, -0.888059
** Name: Force-79   Type: Concentrated force
*Cload
_PickedSet86, 2, -0.919305
** Name: Force-80   Type: Concentrated force
*Cload
_PickedSet87, 2, -0.949147
** Name: Force-81   Type: Concentrated force
*Cload
_PickedSet88, 2, -0.977242
** Name: Force-82   Type: Concentrated force
*Cload
_PickedSet89, 2, -1.00332
** Name: Force-83   Type: Concentrated force
*Cload
_PickedSet90, 2, -1.02699
** Name: Force-84   Type: Concentrated force
*Cload
_PickedSet91, 2, -1.04785
** Name: Force-85   Type: Concentrated force
*Cload
_PickedSet92, 2, -1.065
** Name: Force-86   Type: Concentrated force
*Cload
_PickedSet93, 2, -1.07771
** Name: Force-87   Type: Concentrated force
*Cload
_PickedSet94, 2, -1.0859
** Name: Force-88   Type: Concentrated force
*Cload
_PickedSet95, 2, -1.08975
** Name: Force-89   Type: Concentrated force
*Cload
_PickedSet96, 2, -1.08965
** Name: Force-90   Type: Concentrated force
*Cload
_PickedSet97, 2, -1.08427
** Name: Force-91   Type: Concentrated force
*Cload
_PickedSet98, 2, -1.06973
** Name: Force-92   Type: Concentrated force
*Cload
_PickedSet99, 2, -1.03763
** Name: Force-93   Type: Concentrated force
*Cload
_PickedSet100, 2, -0.984205
** Name: Force-94   Type: Concentrated force
*Cload
_PickedSet101, 2, -0.898642
** Name: Force-95   Type: Concentrated force
*Cload
_PickedSet102, 2, -0.726923
** Name: Force-96   Type: Concentrated force
*Cload
_PickedSet103, 2, 0.00170994
** Name: Force-97   Type: Concentrated force
*Cload
_PickedSet104, 2, 0.00170994
** Name: Force-98   Type: Concentrated force
*Cload
_PickedSet105, 2, 1.05428
** Name: Force-99   Type: Concentrated force
*Cload
_PickedSet106, 2, 0.972171
** Name: Force-100   Type: Concentrated force
*Cload
_PickedSet107, 2, 0.772791
** Name: Force-101   Type: Concentrated force
*Cload
_PickedSet108, 2, 0.619956
** Name: Force-102   Type: Concentrated force
*Cload
_PickedSet109, 2, 0.500725
** Name: Force-103   Type: Concentrated force
*Cload
_PickedSet110, 2, 0.403392
** Name: Force-104   Type: Concentrated force
*Cload
_PickedSet111, 2, 0.335501
** Name: Force-105   Type: Concentrated force
*Cload
_PickedSet112, 2, 0.292709
** Name: Force-106   Type: Concentrated force
*Cload
_PickedSet113, 2, 0.262352
** Name: Force-107   Type: Concentrated force
*Cload
_PickedSet114, 2, 0.240736
** Name: Force-108   Type: Concentrated force
*Cload
_PickedSet115, 2, 0.224231
** Name: Force-109   Type: Concentrated force
*Cload
_PickedSet116, 2, 0.211636
** Name: Force-110   Type: Concentrated force
*Cload
_PickedSet117, 2, 0.201546
** Name: Force-111   Type: Concentrated force
*Cload
_PickedSet118, 2, 0.193288
** Name: Force-112   Type: Concentrated force
*Cload
_PickedSet119, 2, 0.186542
** Name: Force-113   Type: Concentrated force
*Cload
_PickedSet120, 2, 0.18102
** Name: Force-114   Type: Concentrated force
*Cload
_PickedSet121, 2, 0.176355
** Name: Force-115   Type: Concentrated force
*Cload
_PickedSet122, 2, 0.172196
** Name: Force-116   Type: Concentrated force
*Cload
_PickedSet123, 2, 0.168382
** Name: Force-117   Type: Concentrated force
*Cload
_PickedSet124, 2, 0.165076
** Name: Force-118   Type: Concentrated force
*Cload
_PickedSet125, 2, 0.162237
** Name: Force-119   Type: Concentrated force
*Cload
_PickedSet126, 2, 0.15993
** Name: Force-120   Type: Concentrated force
*Cload
_PickedSet127, 2, 0.158326
** Name: Force-121   Type: Concentrated force
*Cload
_PickedSet128, 2, 0.158323
** Name: Force-122   Type: Concentrated force
*Cload
_PickedSet129, 2, 0.159391
** Name: Force-123   Type: Concentrated force
*Cload
_PickedSet130, 2, 0.161582
** Name: Force-124   Type: Concentrated force
*Cload
_PickedSet131, 2, 0.164945
** Name: Force-125   Type: Concentrated force
*Cload
_PickedSet132, 2, 0.168705
** Name: Force-126   Type: Concentrated force
*Cload
_PickedSet133, 2, 0.172966
** Name: Force-127   Type: Concentrated force
*Cload
_PickedSet134, 2, 0.177507
** Name: Force-128   Type: Concentrated force
*Cload
_PickedSet135, 2, 0.18208
** Name: Force-129   Type: Concentrated force
*Cload
_PickedSet136, 2, 0.186403
** Name: Force-130   Type: Concentrated force
*Cload
_PickedSet137, 2, 0.19012
** Name: Force-131   Type: Concentrated force
*Cload
_PickedSet138, 2, 0.193145
** Name: Force-132   Type: Concentrated force
*Cload
_PickedSet139, 2, 0.194487
** Name: Force-133   Type: Concentrated force
*Cload
_PickedSet140, 2, 0.195243
** Name: Force-134   Type: Concentrated force
*Cload
_PickedSet141, 2, 0.194282
** Name: Force-135   Type: Concentrated force
*Cload
_PickedSet142, 2, 0.193174
** Name: Force-136   Type: Concentrated force
*Cload
_PickedSet143, 2, 0.191563
** Name: Force-137   Type: Concentrated force
*Cload
_PickedSet144, 2, 0.189967
** Name: Force-138   Type: Concentrated force
*Cload
_PickedSet145, 2, 0.188394
** Name: Force-139   Type: Concentrated force
*Cload
_PickedSet146, 2, 0.187028
** Name: Force-140   Type: Concentrated force
*Cload
_PickedSet147, 2, 0.185876
** Name: Force-141   Type: Concentrated force
*Cload
_PickedSet148, 2, 0.185293
** Name: Force-142   Type: Concentrated force
*Cload
_PickedSet149, 2, 0.185051
** Name: Force-143   Type: Concentrated force
*Cload
_PickedSet150, 2, 0.185646
** Name: Force-144   Type: Concentrated force
*Cload
_PickedSet151, 2, 0.186527
** Name: Force-145   Type: Concentrated force
*Cload
_PickedSet152, 2, 0.187873
** Name: Force-146   Type: Concentrated force
*Cload
_PickedSet153, 2, 0.189291
** Name: Force-147   Type: Concentrated force
*Cload
_PickedSet154, 2, 0.190581
** Name: Force-148   Type: Concentrated force
*Cload
_PickedSet155, 2, 0.191848
** Name: Force-149   Type: Concentrated force
*Cload
_PickedSet156, 2, 0.192919
** Name: Force-150   Type: Concentrated force
*Cload
_PickedSet157, 2, 0.193925
** Name: Force-151   Type: Concentrated force
*Cload
_PickedSet158, 2, 0.194704
** Name: Force-152   Type: Concentrated force
*Cload
_PickedSet159, 2, 0.195262
** Name: Force-153   Type: Concentrated force
*Cload
_PickedSet160, 2, 0.195412
** Name: Force-154   Type: Concentrated force
*Cload
_PickedSet161, 2, 0.195339
** Name: Force-155   Type: Concentrated force
*Cload
_PickedSet162, 2, 0.195043
** Name: Force-156   Type: Concentrated force
*Cload
_PickedSet163, 2, 0.194628
** Name: Force-157   Type: Concentrated force
*Cload
_PickedSet164, 2, 0.194152
** Name: Force-158   Type: Concentrated force
*Cload
_PickedSet165, 2, 0.193459
** Name: Force-159   Type: Concentrated force
*Cload
_PickedSet166, 2, 0.192712
** Name: Force-160   Type: Concentrated force
*Cload
_PickedSet167, 2, 0.191784
** Name: Force-161   Type: Concentrated force
*Cload
_PickedSet168, 2, 0.190788
** Name: Force-162   Type: Concentrated force
*Cload
_PickedSet169, 2, 0.189676
** Name: Force-163   Type: Concentrated force
*Cload
_PickedSet170, 2, 0.188524
** Name: Force-164   Type: Concentrated force
*Cload
_PickedSet171, 2, 0.18737
** Name: Force-165   Type: Concentrated force
*Cload
_PickedSet172, 2, 0.186608
** Name: Force-166   Type: Concentrated force
*Cload
_PickedSet173, 2, 0.18628
** Name: Force-167   Type: Concentrated force
*Cload
_PickedSet174, 2, 0.186516
** Name: Force-168   Type: Concentrated force
*Cload
_PickedSet175, 2, 0.187825
** Name: Force-169   Type: Concentrated force
*Cload
_PickedSet176, 2, 0.189712
** Name: Force-170   Type: Concentrated force
*Cload
_PickedSet177, 2, 0.192279
** Name: Force-171   Type: Concentrated force
*Cload
_PickedSet178, 2, 0.196647
** Name: Force-172   Type: Concentrated force
*Cload
_PickedSet179, 2, 0.202351
** Name: Force-173   Type: Concentrated force
*Cload
_PickedSet180, 2, 0.209089
** Name: Force-174   Type: Concentrated force
*Cload
_PickedSet181, 2, 0.215925
** Name: Force-175   Type: Concentrated force
*Cload
_PickedSet182, 2, 0.220769
** Name: Force-176   Type: Concentrated force
*Cload
_PickedSet183, 2, 0.223411
** Name: Force-177   Type: Concentrated force
*Cload
_PickedSet184, 2, 0.223908
** Name: Force-178   Type: Concentrated force
*Cload
_PickedSet185, 2, 0.222633
** Name: Force-179   Type: Concentrated force
*Cload
_PickedSet186, 2, 0.219988
** Name: Force-180   Type: Concentrated force
*Cload
_PickedSet187, 2, 0.216012
** Name: Force-181   Type: Concentrated force
*Cload
_PickedSet188, 2, 0.210802
** Name: Force-182   Type: Concentrated force
*Cload
_PickedSet189, 2, 0.204625
** Name: Force-183   Type: Concentrated force
*Cload
_PickedSet190, 2, 0.197695
** Name: Force-184   Type: Concentrated force
*Cload
_PickedSet191, 2, 0.18993
** Name: Force-185   Type: Concentrated force
*Cload
_PickedSet192, 2, 0.181297
** Name: Force-186   Type: Concentrated force
*Cload
_PickedSet193, 2, 0.170878
** Name: Force-187   Type: Concentrated force
*Cload
_PickedSet194, 2, 0.158339
** Name: Force-188   Type: Concentrated force
*Cload
_PickedSet195, 2, 0.144544
** Name: Force-189   Type: Concentrated force
*Cload
_PickedSet196, 2, 0.126714
** Name: Force-190   Type: Concentrated force
*Cload
_PickedSet197, 2, -0.027126
** Name: Force-191   Type: Concentrated force
*Cload
_PickedSet198, 2, -0.027126
** Name: Force-192   Type: Concentrated force
*Cload
_PickedSet199, 2, 0.00313959
** 
** OUTPUT REQUESTS
** 
*Restart, write, frequency=0
** 
** FIELD OUTPUT: F-Output-1
** 
*Output, field, variable=PRESELECT
** 
** HISTORY OUTPUT: H-Output-1
** 
*Output, history, variable=PRESELECT
*End Step
