*Heading
** Job name: Stiffness_optimization-Job Model name: Model-1
** Generated by: Abaqus/CAE 2024.HF2
*Preprint, echo=NO, model=NO, history=NO, contact=NO
**
** PARTS
**
*Part, name=Airfoil
*End Part
**  
**
** ASSEMBLY
**
*Assembly, name=Assembly
**  
*Instance, name=Airfoil-1, part=Airfoil
*Node
      1,  0.989739835, 0.0020842636
      2,  0.988452852, 0.00309589249
      3,  0.985638022, 0.00343888323
      4,  0.975661576, 0.00305655017
      5,   0.96590513, 0.00520772254
      6,  0.960970163, 0.00600824039
      7,  0.951078176, 0.00747474469
      8,  0.946144581, 0.00828636438
      9,  0.936264098, 0.00982850976
     10,  0.926375151, 0.0113222469
     11,  0.921430528, 0.0120548373
     12,  0.911531627, 0.0134785604
     13,  0.906579554, 0.0141701875
     14,  0.896669626, 0.0155091705
     15,  0.891711414, 0.0161548592
     16,  0.881788492, 0.0173953231
     17,  0.876823723, 0.0179886576
     18,  0.866887569, 0.0191178173
     19,  0.856942892, 0.0201696735
     20,  0.851967812, 0.0206688754
** ... 1874 like lines cut
*Element, type=CPS3
 1,    1,  718,  264
 2, 1608, 1395,  490
 3, 1294, 1141, 1219
 4, 1770,  449, 1253
 5,  743,  247,  709
 6, 1132,  323, 1788
 7, 1823, 1485, 1199
 8, 1469, 1463,  351
 9, 1415, 1223,  296
10, 1568, 1482, 1561
11, 1692, 1607,  356
12, 1428,  294, 1338
13, 1658, 1547, 1433
14, 1257, 1647, 1438
15, 1659, 1458, 1480
16, 1837, 1470, 1849
17, 1879, 1471, 1628
18, 1638,  277, 1390
19, 1678,  426, 1534
20, 1719, 1486,  417
** ... 8 like lines cut
*Element, type=CPS4R
  29,  717, 1780,  718, 1781
  30,  717,  262,  263, 1780
  31,  264,  718, 1780,  263
  32,  259,  716,  575,    4
  33,  258,  715,  576,    5
  34,    5,    6,  257,  258
  35,  256,  714,  577,    7
  36,  255,  256,    7,    8
  37,  578,    9,  254,  713
  38,  712,  998, 1011,  253
  39,   11,  839,  740,   10
  40,  839,   11,  580,  840
  41,  711,  839,  840,  251
  42,  251,  840,  838,  250
  43,  253, 1011,  740,  252
  44,  254,    9,  998,  712
  45,   13,  741,  838,   12
  46,  581,  742,  741,   13
  47,  710,  741,  742,  249
  48,  249,  742,  837,  248
** ... 1656 like lines cut
*Nset, nset=_G2, internal, generate
    1,  1894,     1
*Elset, elset=_G2, internal, generate
    1,  1704,     1
** Section: Section-Airfoil
*Solid Section, elset=_G2, material=Material-Airfoil
,
*End Instance
**  
*Nset, nset=TopOptSet, instance=Airfoil-1, generate
    1,  1894,     1
*Elset, elset=TopOptSet, instance=Airfoil-1, generate
    1,  1704,     1
*Nset, nset=_PickedSet7, internal, instance=Airfoil-1
 264,
*Nset, nset=_PickedSet8, internal, instance=Airfoil-1
 264,
*Nset, nset=_PickedSet9, internal, instance=Airfoil-1
 264,
*Nset, nset=_PickedSet10, internal, instance=Airfoil-1
 575,
*Nset, nset=_PickedSet11, internal, instance=Airfoil-1
 5,
*Nset, nset=_PickedSet12, internal, instance=Airfoil-1
 577,
*Nset, nset=_PickedSet13, internal, instance=Airfoil-1
 8,
*Nset, nset=_PickedSet14, internal, instance=Airfoil-1
 9,
*Nset, nset=_PickedSet15, internal, instance=Airfoil-1
 11,
*Nset, nset=_PickedSet16, internal, instance=Airfoil-1
 12,
*Nset, nset=_PickedSet17, internal, instance=Airfoil-1
 581,
*Nset, nset=_PickedSet18, internal, instance=Airfoil-1
 15,
*Nset, nset=_PickedSet19, internal, instance=Airfoil-1
 16,
*Nset, nset=_PickedSet20, internal, instance=Airfoil-1
 18,
*Nset, nset=_PickedSet21, internal, instance=Airfoil-1
 19,
*Nset, nset=_PickedSet22, internal, instance=Airfoil-1
 585,
*Nset, nset=_PickedSet23, internal, instance=Airfoil-1
 22,
*Nset, nset=_PickedSet24, internal, instance=Airfoil-1
 23,
*Nset, nset=_PickedSet25, internal, instance=Airfoil-1
 25,
*Nset, nset=_PickedSet26, internal, instance=Airfoil-1
** ... 345 like lines cut
*Nset, nset=_PickedSet199, internal, instance=Airfoil-1, generate
    1,  1894,     1
*Elset, elset=_PickedSet199, internal, instance=Airfoil-1, generate
    1,  1704,     1
*End Assembly
** 
** MATERIALS
** 
*Material, name=Material-Airfoil
*Density
2700.,
*Elastic
 7e+10, 0.33
** ----------------------------------------------------------------
** 
** STEP: Step-1
** 
*Step, name=Step-1, nlgeom=NO
Step statico generale per analisi quasi-statica.
*Static
1., 1., 1e-05, 1.
** 
** LOADS
** 
** Name: Force-1   Type: Concentrated force
*Cload
_PickedSet7, 2, 0.00313959
** Name: Force-2   Type: Concentrated force
*Cload
_PickedSet8, 2, -0.0257411
** Name: Force-3   Type: Concentrated force
*Cload
_PickedSet9, 2, -0.0257411
** Name: Force-4   Type: Concentrated force
*Cload
_PickedSet10, 2, 0.0148836
** Name: Force-5   Type: Concentrated force
*Cload
_PickedSet11, 2, -0.0149755
** Name: Force-6   Type: Concentrated force
*Cload
_PickedSet12, 2, -0.0417537
** Name: Force-7   Type: Concentrated force
*Cload
_PickedSet13, 2, -0.0669301
** Name: Force-8   Type: Concentrated force
*Cload
_PickedSet14, 2, -0.0914377
** Name: Force-9   Type: Concentrated force
*Cload
_PickedSet15, 2, -0.114973
** Name: Force-10   Type: Concentrated force
*Cload
_PickedSet16, 2, -0.137372
** Name: Force-11   Type: Concentrated force
*Cload
_PickedSet17, 2, -0.158614
** Name: Force-12   Type: Concentrated force
*Cload
_PickedSet18, 2, -0.178544
** Name: Force-13   Type: Concentrated force
*Cload
_PickedSet19, 2, -0.196764
** Name: Force-14   Type: Concentrated force
*Cload
_PickedSet20, 2, -0.212667
** Name: Force-15   Type: Concentrated force
*Cload
_PickedSet21, 2, -0.22624
** Name: Force-16   Type: Concentrated force
*Cload
_PickedSet22, 2, -0.237287
** Name: Force-17   Type: Concentrated force
*Cload
_PickedSet23, 2, -0.244888
** Name: Force-18   Type: Concentrated force
*Cload
_PickedSet24, 2, -0.248477
** Name: Force-19   Type: Concentrated force
*Cload
_PickedSet25, 2, -0.248248
** Name: Force-20   Type: Concentrated force
*Cload
_PickedSet26, 2, -0.245101
** Name: Force-21   Type: Concentrated force
*Cload
_PickedSet27, 2, -0.240767
** Name: Force-22   Type: Concentrated force
*Cload
_PickedSet28, 2, -0.238627
** Name: Force-23   Type: Concentrated force
*Cload
_PickedSet29, 2, -0.238262
** Name: Force-24   Type: Concentrated force
*Cload
_PickedSet30, 2, -0.239464
** Name: Force-25   Type: Concentrated force
*Cload
_PickedSet31, 2, -0.242338
** Name: Force-26   Type: Concentrated force
*Cload
_PickedSet32, 2, -0.246677
** Name: Force-27   Type: Concentrated force
*Cload
_PickedSet33, 2, -0.252133
** Name: Force-28   Type: Concentrated force
*Cload
_PickedSet34, 2, -0.259518
** Name: Force-29   Type: Concentrated force
*Cload
_PickedSet35, 2, -0.267964
** Name: Force-30   Type: Concentrated force
*Cload
_PickedSet36, 2, -0.277123
** Name: Force-31   Type: Concentrated force
*Cload
_PickedSet37, 2, -0.287246
** Name: Force-32   Type: Concentrated force
*Cload
_PickedSet38, 2, -0.297456
** Name: Force-33   Type: Concentrated force
*Cload
_PickedSet39, 2, -0.307806
** Name: Force-34   Type: Concentrated force
*Cload
_PickedSet40, 2, -0.318222
** Name: Force-35   Type: Concentrated force
*Cload
_PickedSet41, 2, -0.328664
** Name: Force-36   Type: Concentrated force
*Cload
_PickedSet42, 2, -0.339364
** Name: Force-37   Type: Concentrated force
*Cload
_PickedSet43, 2, -0.35008
** Name: Force-38   Type: Concentrated force
*Cload
_PickedSet44, 2, -0.360841
** Name: Force-39   Type: Concentrated force
*Cload
_PickedSet45, 2, -0.371385
** Name: Force-40   Type: Concentrated force
*Cload
_PickedSet46, 2, -0.38163
** Name: Force-41   Type: Concentrated force
*Cload
_PickedSet47, 2, -0.391179
** Name: Force-42   Type: Concentrated force
*Cload
_PickedSet48, 2, -0.400265
** Name: Force-43   Type: Concentrated force
*Cload
_PickedSet49, 2, -0.408449
** Name: Force-44   Type: Concentrated force
*Cload
_PickedSet50, 2, -0.416348
** Name: Force-45   Type: Concentrated force
*Cload
_PickedSet51, 2, -0.423649
** Name: Force-46   Type: Concentrated force
*Cload
_PickedSet52, 2, -0.430882
** Name: Force-47   Type: Concentrated force
*Cload
_PickedSet53, 2, -0.438068
** Name: Force-48   Type: Concentrated force
*Cload
_PickedSet54, 2, -0.445465
** Name: Force-49   Type: Concentrated force
*Cload
_PickedSet55, 2, -0.454042
** Name: Force-50   Type: Concentrated force
*Cload
_PickedSet56, 2, -0.463752
** Name: Force-51   Type: Concentrated force
*Cload
_PickedSet57, 2, -0.476244
** Name: Force-52   Type: Concentrated force
*Cload
_PickedSet58, 2, -0.490837
** Name: Force-53   Type: Concentrated force
*Cload
_PickedSet59, 2, -0.508173
** Name: Force-54   Type: Concentrated force
*Cload
_PickedSet60, 2, -0.527738
** Name: Force-55   Type: Concentrated force
*Cload
_PickedSet61, 2, -0.549138
** Name: Force-56   Type: Concentrated force
*Cload
_PickedSet62, 2, -0.572329
** Name: Force-57   Type: Concentrated force
*Cload
_PickedSet63, 2, -0.595953
** Name: Force-58   Type: Concentrated force
*Cload
_PickedSet64, 2, -0.619326
** Name: Force-59   Type: Concentrated force
*Cload
_PickedSet65, 2, -0.642125
** Name: Force-60   Type: Concentrated force
*Cload
_PickedSet66, 2, -0.660415
** Name: Force-61   Type: Concentrated force
*Cload
_PickedSet67, 2, -0.676431
** Name: Force-62   Type: Concentrated force
*Cload
_PickedSet68, 2, -0.685708
** Name: Force-63   Type: Concentrated force
*Cload
_PickedSet69, 2, -0.691176
** Name: Force-64   Type: Concentrated force
*Cload
_PickedSet70, 2, -0.692584
** Name: Force-65   Type: Concentrated force
*Cload
_PickedSet71, 2, -0.691348
** Name: Force-66   Type: Concentrated force
*Cload
_PickedSet72, 2, -0.68925
** Name: Force-67   Type: Concentrated force
*Cload
_PickedSet73, 2, -0.686788
** Name: Force-68   Type: Concentrated force
*Cload
_PickedSet74, 2, -0.685364
** Name: Force-69   Type: Concentrated force
*Cload
_PickedSet75, 2, -0.68508
** Name: Force-70   Type: Concentrated force
*Cload
_PickedSet76, 2, -0.689801
** Name: Force-71   Type: Concentrated force
*Cload
_PickedSet77, 2, -0.698546
** Name: Force-72   Type: Concentrated force
*Cload
_PickedSet78, 2, -0.712479
** Name: Force-73   Type: Concentrated force
*Cload
_PickedSet79, 2, -0.735213
** Name: Force-74   Type: Concentrated force
*Cload
_PickedSet80, 2, -0.761673
** Name: Force-75   Type: Concentrated force
*Cload
_PickedSet81, 2, -0.791458
** Name: Force-76   Type: Concentrated force
*Cload
_PickedSet82, 2, -0.823502
** Name: Force-77   Type: Concentrated force
*Cload
_PickedSet83, 2, -0.855944
** Name: Force-78   Type: Concentrated force
*Cload
_PickedSet84, 2, -0.888059
** Name: Force-79   Type: Concentrated force
*Cload
_PickedSet85, 2, -0.919305
** Name: Force-80   Type: Concentrated force
*Cload
_PickedSet86, 2, -0.949147
** Name: Force-81   Type: Concentrated force
*Cload
_PickedSet87, 2, -0.977242
** Name: Force-82   Type: Concentrated force
*Cload
_PickedSet88, 2, -1.00332
** Name: Force-83   Type: Concentrated force
*Cload
_PickedSet89, 2, -1.02699
** Name: Force-84   Type: Concentrated force
*Cload
_PickedSet90, 2, -1.04785
** Name: Force-85   Type: Concentrated force
*Cload
_PickedSet91, 2, -1.065
** Name: Force-86   Type: Concentrated force
*Cload
_PickedSet92, 2, -1.07771
** Name: Force-87   Type: Concentrated force
*Cload
_PickedSet93, 2, -1.0859
** Name: Force-88   Type: Concentrated force
*Cload
_PickedSet94, 2, -1.08975
** Name: Force-89   Type: Concentrated force
*Cload
_PickedSet95, 2, -1.08965
** Name: Force-90   Type: Concentrated force
*Cload
_PickedSet96, 2, -1.08427
** Name: Force-91   Type: Concentrated force
*Cload
_PickedSet97, 2, -1.06973
** Name: Force-92   Type: Concentrated force
*Cload
_PickedSet98, 2, -1.03763
** Name: Force-93   Type: Concentrated force
*Cload
_PickedSet99, 2, -0.984205
** Name: Force-94   Type: Concentrated force
*Cload
_PickedSet100, 2, -0.898642
** Name: Force-95   Type: Concentrated force
*Cload
_PickedSet101, 2, -0.726923
** Name: Force-96   Type: Concentrated force
*Cload
_PickedSet102, 2, 0.00170994
** Name: Force-97   Type: Concentrated force
*Cload
_PickedSet103, 2, 0.00170994
** Name: Force-98   Type: Concentrated force
*Cload
_PickedSet104, 2, 1.05428
** Name: Force-99   Type: Concentrated force
*Cload
_PickedSet105, 2, 0.972171
** Name: Force-100   Type: Concentrated force
*Cload
_PickedSet106, 2, 0.772791
** Name: Force-101   Type: Concentrated force
*Cload
_PickedSet107, 2, 0.619956
** Name: Force-102   Type: Concentrated force
*Cload
_PickedSet108, 2, 0.500725
** Name: Force-103   Type: Concentrated force
*Cload
_PickedSet109, 2, 0.403392
** Name: Force-104   Type: Concentrated force
*Cload
_PickedSet110, 2, 0.335501
** Name: Force-105   Type: Concentrated force
*Cload
_PickedSet111, 2, 0.292709
** Name: Force-106   Type: Concentrated force
*Cload
_PickedSet112, 2, 0.262352
** Name: Force-107   Type: Concentrated force
*Cload
_PickedSet113, 2, 0.240736
** Name: Force-108   Type: Concentrated force
*Cload
_PickedSet114, 2, 0.224231
** Name: Force-109   Type: Concentrated force
*Cload
_PickedSet115, 2, 0.211636
** Name: Force-110   Type: Concentrated force
*Cload
_PickedSet116, 2, 0.201546
** Name: Force-111   Type: Concentrated force
*Cload
_PickedSet117, 2, 0.193288
** Name: Force-112   Type: Concentrated force
*Cload
_PickedSet118, 2, 0.186542
** Name: Force-113   Type: Concentrated force
*Cload
_PickedSet119, 2, 0.18102
** Name: Force-114   Type: Concentrated force
*Cload
_PickedSet120, 2, 0.176355
** Name: Force-115   Type: Concentrated force
*Cload
_PickedSet121, 2, 0.172196
** Name: Force-116   Type: Concentrated force
*Cload
_PickedSet122, 2, 0.168382
** Name: Force-117   Type: Concentrated force
*Cload
_PickedSet123, 2, 0.165076
** Name: Force-118   Type: Concentrated force
*Cload
_PickedSet124, 2, 0.162237
** Name: Force-119   Type: Concentrated force
*Cload
_PickedSet125, 2, 0.15993
** Name: Force-120   Type: Concentrated force
*Cload
_PickedSet126, 2, 0.158326
** Name: Force-121   Type: Concentrated force
*Cload
_PickedSet127, 2, 0.158323
** Name: Force-122   Type: Concentrated force
*Cload
_PickedSet128, 2, 0.159391
** Name: Force-123   Type: Concentrated force
*Cload
_PickedSet129, 2, 0.161582
** Name: Force-124   Type: Concentrated force
*Cload
_PickedSet130, 2, 0.164945
** Name: Force-125   Type: Concentrated force
*Cload
_PickedSet131, 2, 0.168705
** Name: Force-126   Type: Concentrated force
*Cload
_PickedSet132, 2, 0.172966
** Name: Force-127   Type: Concentrated force
*Cload
_PickedSet133, 2, 0.177507
** Name: Force-128   Type: Concentrated force
*Cload
_PickedSet134, 2, 0.18208
** Name: Force-129   Type: Concentrated force
*Cload
_PickedSet135, 2, 0.186403
** Name: Force-130   Type: Concentrated force
*Cload
_PickedSet136, 2, 0.19012
** Name: Force-131   Type: Concentrated force
*Cload
_PickedSet137, 2, 0.193145
** Name: Force-132   Type: Concentrated force
*Cload
_PickedSet138, 2, 0.194487
** Name: Force-133   Type: Concentrated force
*Cload
_PickedSet139, 2, 0.195243
** Name: Force-134   Type: Concentrated force
*Cload
_PickedSet140, 2, 0.194282
** Name: Force-135   Type: Concentrated force
*Cload
_PickedSet141, 2, 0.193174
** Name: Force-136   Type: Concentrated force
*Cload
_PickedSet142, 2, 0.191563
** Name: Force-137   Type: Concentrated force
*Cload
_PickedSet143, 2, 0.189967
** Name: Force-138   Type: Concentrated force
*Cload
_PickedSet144, 2, 0.188394
** Name: Force-139   Type: Concentrated force
*Cload
_PickedSet145, 2, 0.187028
** Name: Force-140   Type: Concentrated force
*Cload
_PickedSet146, 2, 0.185876
** Name: Force-141   Type: Concentrated force
*Cload
_PickedSet147, 2, 0.185293
** Name: Force-142   Type: Concentrated force
*Cload
_PickedSet148, 2, 0.185051
** Name: Force-143   Type: Concentrated force
*Cload
_PickedSet149, 2, 0.185646
** Name: Force-144   Type: Concentrated force
*Cload
_PickedSet150, 2, 0.186527
** Name: Force-145   Type: Concentrated force
*Cload
_PickedSet151, 2, 0.187873
** Name: Force-146   Type: Concentrated force
*Cload
_PickedSet152, 2, 0.189291
** Name: Force-147   Type: Concentrated force
*Cload
_PickedSet153, 2, 0.190581
** Name: Force-148   Type: Concentrated force
*Cload
_PickedSet154, 2, 0.191848
** Name: Force-149   Type: Concentrated force
*Cload
_PickedSet155, 2, 0.192919
** Name: Force-150   Type: Concentrated force
*Cload
_PickedSet156, 2, 0.193925
** Name: Force-151   Type: Concentrated force
*Cload
_PickedSet157, 2, 0.194704
** Name: Force-152   Type: Concentrated force
*Cload
_PickedSet158, 2, 0.195262
** Name: Force-153   Type: Concentrated force
*Cload
_PickedSet159, 2, 0.195412
** Name: Force-154   Type: Concentrated force
*Cload
_PickedSet160, 2, 0.195339
** Name: Force-155   Type: Concentrated force
*Cload
_PickedSet161, 2, 0.195043
** Name: Force-156   Type: Concentrated force
*Cload
_PickedSet162, 2, 0.194628
** Name: Force-157   Type: Concentrated force
*Cload
_PickedSet163, 2, 0.194152
** Name: Force-158   Type: Concentrated force
*Cload
_PickedSet164, 2, 0.193459
** Name: Force-159   Type: Concentrated force
*Cload
_PickedSet165, 2, 0.192712
** Name: Force-160   Type: Concentrated force
*Cload
_PickedSet166, 2, 0.191784
** Name: Force-161   Type: Concentrated force
*Cload
_PickedSet167, 2, 0.190788
** Name: Force-162   Type: Concentrated force
*Cload
_PickedSet168, 2, 0.189676
** Name: Force-163   Type: Concentrated force
*Cload
_PickedSet169, 2, 0.188524
** Name: Force-164   Type: Concentrated force
*Cload
_PickedSet170, 2, 0.18737
** Name: Force-165   Type: Concentrated force
*Cload
_PickedSet171, 2, 0.186608
** Name: Force-166   Type: Concentrated force
*Cload
_PickedSet172, 2, 0.18628
** Name: Force-167   Type: Concentrated force
*Cload
_PickedSet173, 2, 0.186516
** Name: Force-168   Type: Concentrated force
*Cload
_PickedSet174, 2, 0.187825
** Name: Force-169   Type: Concentrated force
*Cload
_PickedSet175, 2, 0.189712
** Name: Force-170   Type: Concentrated force
*Cload
_PickedSet176, 2, 0.192279
** Name: Force-171   Type: Concentrated force
*Cload
_PickedSet177, 2, 0.196647
** Name: Force-172   Type: Concentrated force
*Cload
_PickedSet178, 2, 0.202351
** Name: Force-173   Type: Concentrated force
*Cload
_PickedSet179, 2, 0.209089
** Name: Force-174   Type: Concentrated force
*Cload
_PickedSet180, 2, 0.215925
** Name: Force-175   Type: Concentrated force
*Cload
_PickedSet181, 2, 0.220769
** Name: Force-176   Type: Concentrated force
*Cload
_PickedSet182, 2, 0.223411
** Name: Force-177   Type: Concentrated force
*Cload
_PickedSet183, 2, 0.223908
** Name: Force-178   Type: Concentrated force
*Cload
_PickedSet184, 2, 0.222633
** Name: Force-179   Type: Concentrated force
*Cload
_PickedSet185, 2, 0.219988
** Name: Force-180   Type: Concentrated force
*Cload
_PickedSet186, 2, 0.216012
** Name: Force-181   Type: Concentrated force
*Cload
_PickedSet187, 2, 0.210802
** Name: Force-182   Type: Concentrated force
*Cload
_PickedSet188, 2, 0.204625
** Name: Force-183   Type: Concentrated force
*Cload
_PickedSet189, 2, 0.197695
** Name: Force-184   Type: Concentrated force
*Cload
_PickedSet190, 2, 0.18993
** Name: Force-185   Type: Concentrated force
*Cload
_PickedSet191, 2, 0.181297
** Name: Force-186   Type: Concentrated force
*Cload
_PickedSet192, 2, 0.170878
** Name: Force-187   Type: Concentrated force
*Cload
_PickedSet193, 2, 0.158339
** Name: Force-188   Type: Concentrated force
*Cload
_PickedSet194, 2, 0.144544
** Name: Force-189   Type: Concentrated force
*Cload
_PickedSet195, 2, 0.126714
** Name: Force-190   Type: Concentrated force
*Cload
_PickedSet196, 2, -0.027126
** Name: Force-191   Type: Concentrated force
*Cload
_PickedSet197, 2, -0.027126
** Name: Force-192   Type: Concentrated force
*Cload
_PickedSet198, 2, 0.00313959
** 
** OUTPUT REQUESTS
** 
*Restart, write, frequency=0
** 
** FIELD OUTPUT: F-Output-1
** 
*Output, field, variable=PRESELECT
** 
** HISTORY OUTPUT: H-Output-1
** 
*Output, history, variable=PRESELECT
*End Step
